
#======================================================================
# CRYSTAL DATA
#----------------------------------------------------------------------
data_VESTA_phase_1

_chemical_name_common                  'O1 Rb5.33'
_cell_length_a                         23.1520(10)
_cell_length_b                         23.1520(10)
_cell_length_c                         23.1520(10)
_cell_angle_alpha                      90.000000
_cell_angle_beta                       90.000000
_cell_angle_gamma                      90.000000
_cell_volume                           12409.822375
_space_group_name_H-M_alt              'F m -3 c'
_space_group_IT_number                 226

loop_
_space_group_symop_operation_xyz
   'x, y, z'
   '-x, -y, -z'
   '-x, -y, z'
   'x, y, -z'
   '-x, y, -z'
   'x, -y, z'
   'x, -y, -z'
   '-x, y, z'
   'z, x, y'
   '-z, -x, -y'
   'z, -x, -y'
   '-z, x, y'
   '-z, -x, y'
   'z, x, -y'
   '-z, x, -y'
   'z, -x, y'
   'y, z, x'
   '-y, -z, -x'
   '-y, z, -x'
   'y, -z, x'
   'y, -z, -x'
   '-y, z, x'
   '-y, -z, x'
   'y, z, -x'
   'y+1/2, x+1/2, -z+1/2'
   '-y+1/2, -x+1/2, z+1/2'
   '-y+1/2, -x+1/2, -z+1/2'
   'y+1/2, x+1/2, z+1/2'
   'y+1/2, -x+1/2, z+1/2'
   '-y+1/2, x+1/2, -z+1/2'
   '-y+1/2, x+1/2, z+1/2'
   'y+1/2, -x+1/2, -z+1/2'
   'x+1/2, z+1/2, -y+1/2'
   '-x+1/2, -z+1/2, y+1/2'
   '-x+1/2, z+1/2, y+1/2'
   'x+1/2, -z+1/2, -y+1/2'
   '-x+1/2, -z+1/2, -y+1/2'
   'x+1/2, z+1/2, y+1/2'
   'x+1/2, -z+1/2, y+1/2'
   '-x+1/2, z+1/2, -y+1/2'
   'z+1/2, y+1/2, -x+1/2'
   '-z+1/2, -y+1/2, x+1/2'
   'z+1/2, -y+1/2, x+1/2'
   '-z+1/2, y+1/2, -x+1/2'
   '-z+1/2, y+1/2, x+1/2'
   'z+1/2, -y+1/2, -x+1/2'
   '-z+1/2, -y+1/2, -x+1/2'
   'z+1/2, y+1/2, x+1/2'
   'x, y+1/2, z+1/2'
   '-x, -y+1/2, -z+1/2'
   '-x, -y+1/2, z+1/2'
   'x, y+1/2, -z+1/2'
   '-x, y+1/2, -z+1/2'
   'x, -y+1/2, z+1/2'
   'x, -y+1/2, -z+1/2'
   '-x, y+1/2, z+1/2'
   'z, x+1/2, y+1/2'
   '-z, -x+1/2, -y+1/2'
   'z, -x+1/2, -y+1/2'
   '-z, x+1/2, y+1/2'
   '-z, -x+1/2, y+1/2'
   'z, x+1/2, -y+1/2'
   '-z, x+1/2, -y+1/2'
   'z, -x+1/2, y+1/2'
   'y, z+1/2, x+1/2'
   '-y, -z+1/2, -x+1/2'
   '-y, z+1/2, -x+1/2'
   'y, -z+1/2, x+1/2'
   'y, -z+1/2, -x+1/2'
   '-y, z+1/2, x+1/2'
   '-y, -z+1/2, x+1/2'
   'y, z+1/2, -x+1/2'
   'y+1/2, x, -z'
   '-y+1/2, -x, z'
   '-y+1/2, -x, -z'
   'y+1/2, x, z'
   'y+1/2, -x, z'
   '-y+1/2, x, -z'
   '-y+1/2, x, z'
   'y+1/2, -x, -z'
   'x+1/2, z, -y'
   '-x+1/2, -z, y'
   '-x+1/2, z, y'
   'x+1/2, -z, -y'
   '-x+1/2, -z, -y'
   'x+1/2, z, y'
   'x+1/2, -z, y'
   '-x+1/2, z, -y'
   'z+1/2, y, -x'
   '-z+1/2, -y, x'
   'z+1/2, -y, x'
   '-z+1/2, y, -x'
   '-z+1/2, y, x'
   'z+1/2, -y, -x'
   '-z+1/2, -y, -x'
   'z+1/2, y, x'
   'x+1/2, y, z+1/2'
   '-x+1/2, -y, -z+1/2'
   '-x+1/2, -y, z+1/2'
   'x+1/2, y, -z+1/2'
   '-x+1/2, y, -z+1/2'
   'x+1/2, -y, z+1/2'
   'x+1/2, -y, -z+1/2'
   '-x+1/2, y, z+1/2'
   'z+1/2, x, y+1/2'
   '-z+1/2, -x, -y+1/2'
   'z+1/2, -x, -y+1/2'
   '-z+1/2, x, y+1/2'
   '-z+1/2, -x, y+1/2'
   'z+1/2, x, -y+1/2'
   '-z+1/2, x, -y+1/2'
   'z+1/2, -x, y+1/2'
   'y+1/2, z, x+1/2'
   '-y+1/2, -z, -x+1/2'
   '-y+1/2, z, -x+1/2'
   'y+1/2, -z, x+1/2'
   'y+1/2, -z, -x+1/2'
   '-y+1/2, z, x+1/2'
   '-y+1/2, -z, x+1/2'
   'y+1/2, z, -x+1/2'
   'y, x+1/2, -z'
   '-y, -x+1/2, z'
   '-y, -x+1/2, -z'
   'y, x+1/2, z'
   'y, -x+1/2, z'
   '-y, x+1/2, -z'
   '-y, x+1/2, z'
   'y, -x+1/2, -z'
   'x, z+1/2, -y'
   '-x, -z+1/2, y'
   '-x, z+1/2, y'
   'x, -z+1/2, -y'
   '-x, -z+1/2, -y'
   'x, z+1/2, y'
   'x, -z+1/2, y'
   '-x, z+1/2, -y'
   'z, y+1/2, -x'
   '-z, -y+1/2, x'
   'z, -y+1/2, x'
   '-z, y+1/2, -x'
   '-z, y+1/2, x'
   'z, -y+1/2, -x'
   '-z, -y+1/2, -x'
   'z, y+1/2, x'
   'x+1/2, y+1/2, z'
   '-x+1/2, -y+1/2, -z'
   '-x+1/2, -y+1/2, z'
   'x+1/2, y+1/2, -z'
   '-x+1/2, y+1/2, -z'
   'x+1/2, -y+1/2, z'
   'x+1/2, -y+1/2, -z'
   '-x+1/2, y+1/2, z'
   'z+1/2, x+1/2, y'
   '-z+1/2, -x+1/2, -y'
   'z+1/2, -x+1/2, -y'
   '-z+1/2, x+1/2, y'
   '-z+1/2, -x+1/2, y'
   'z+1/2, x+1/2, -y'
   '-z+1/2, x+1/2, -y'
   'z+1/2, -x+1/2, y'
   'y+1/2, z+1/2, x'
   '-y+1/2, -z+1/2, -x'
   '-y+1/2, z+1/2, -x'
   'y+1/2, -z+1/2, x'
   'y+1/2, -z+1/2, -x'
   '-y+1/2, z+1/2, x'
   '-y+1/2, -z+1/2, x'
   'y+1/2, z+1/2, -x'
   'y, x, -z+1/2'
   '-y, -x, z+1/2'
   '-y, -x, -z+1/2'
   'y, x, z+1/2'
   'y, -x, z+1/2'
   '-y, x, -z+1/2'
   '-y, x, z+1/2'
   'y, -x, -z+1/2'
   'x, z, -y+1/2'
   '-x, -z, y+1/2'
   '-x, z, y+1/2'
   'x, -z, -y+1/2'
   '-x, -z, -y+1/2'
   'x, z, y+1/2'
   'x, -z, y+1/2'
   '-x, z, -y+1/2'
   'z, y, -x+1/2'
   '-z, -y, x+1/2'
   'z, -y, x+1/2'
   '-z, y, -x+1/2'
   '-z, y, x+1/2'
   'z, -y, -x+1/2'
   '-z, -y, -x+1/2'
   'z, y, x+1/2'

loop_
   _atom_site_label
   _atom_site_occupancy
   _atom_site_fract_x
   _atom_site_fract_y
   _atom_site_fract_z
   _atom_site_adp_type
   _atom_site_B_iso_or_equiv
   _atom_site_type_symbol
   Rb1        1.0     0.000000     0.1120(10)   0.1760(10)  Biso  7.000000 Rb
   Rb2        0.5000  0.116000     0.250000     0.250000    Biso  7.000000 Rb
   Rb3        1.0     0.000000     0.000000     0.000000    Biso  7.000000 Rb
   O1         1.0     0.000000     0.250000     0.250000    Biso  5.000000 O
