
#======================================================================
# CRYSTAL DATA
#----------------------------------------------------------------------
data_VESTA_phase_1

_chemical_name_common                  'Cu20 Sn6'
_cell_length_a                         7.330(4)
_cell_length_b                         7.330(4)
_cell_length_c                         7.864(5)
_cell_angle_alpha                      90.000000
_cell_angle_beta                       90.000000
_cell_angle_gamma                      120.000000
_cell_volume                           365.916563
_space_group_name_H-M_alt              'P 63'
_space_group_IT_number                 173

loop_
_space_group_symop_operation_xyz
   'x, y, z'
   '-y, x-y, z'
   '-x+y, -x, z'
   '-x, -y, z+1/2'
   'y, -x+y, z+1/2'
   'x-y, x, z+1/2'

loop_
   _atom_site_label
   _atom_site_occupancy
   _atom_site_fract_x
   _atom_site_fract_y
   _atom_site_fract_z
   _atom_site_adp_type
   _atom_site_B_iso_or_equiv
   _atom_site_type_symbol
   Cu1        1.0     0.000000     0.000000    -0.0223(14)  Biso  1.270000 Cu
   Cu2        1.0     0.666667     0.333333    -0.090(3)    Biso  1.540000 Cu
   Cu3        1.0     0.6472(15)  -0.0179(11)  -0.0845(13)  Biso  0.860000 Cu
   Cu4        1.0     0.333333     0.666667     0.0737(17)  Biso  0.570000 Cu
   Cu5        1.0     0.3574(13)   0.0350(10)   0.0833(13)  Biso  0.720000 Cu
   Cu6        1.0     0.666667     0.333333     0.245(3)    Biso  0.670000 Cu
   Sn1        1.0     0.6800(4)   -0.0200(4)    0.250000    Biso  0.770000 Sn
