
#======================================================================
# CRYSTAL DATA
#----------------------------------------------------------------------
data_VESTA_phase_1

_chemical_name_common                  'Mo3 Nd5 O16'
_cell_length_a                         10.990(10)
_cell_length_b                         10.990(10)
_cell_length_c                         10.990(10)
_cell_angle_alpha                      90.000000
_cell_angle_beta                       90.000000
_cell_angle_gamma                      90.000000
_cell_volume                           1327.373216
_space_group_name_H-M_alt              'P n -3 n'
_space_group_IT_number                 222

loop_
_space_group_symop_operation_xyz
   'x, y, z'
   '-x, -y, -z'
   '-x+1/2, -y+1/2, z'
   'x+1/2, y+1/2, -z'
   '-x+1/2, y, -z+1/2'
   'x+1/2, -y, z+1/2'
   'x, -y+1/2, -z+1/2'
   '-x, y+1/2, z+1/2'
   'z, x, y'
   '-z, -x, -y'
   'z, -x+1/2, -y+1/2'
   '-z, x+1/2, y+1/2'
   '-z+1/2, -x+1/2, y'
   'z+1/2, x+1/2, -y'
   '-z+1/2, x, -y+1/2'
   'z+1/2, -x, y+1/2'
   'y, z, x'
   '-y, -z, -x'
   '-y+1/2, z, -x+1/2'
   'y+1/2, -z, x+1/2'
   'y, -z+1/2, -x+1/2'
   '-y, z+1/2, x+1/2'
   '-y+1/2, -z+1/2, x'
   'y+1/2, z+1/2, -x'
   'y, x, -z+1/2'
   '-y, -x, z+1/2'
   '-y+1/2, -x+1/2, -z+1/2'
   'y+1/2, x+1/2, z+1/2'
   'y, -x+1/2, z'
   '-y, x+1/2, -z'
   '-y+1/2, x, z'
   'y+1/2, -x, -z'
   'x, z, -y+1/2'
   '-x, -z, y+1/2'
   '-x+1/2, z, y'
   'x+1/2, -z, -y'
   '-x+1/2, -z+1/2, -y+1/2'
   'x+1/2, z+1/2, y+1/2'
   'x, -z+1/2, y'
   '-x, z+1/2, -y'
   'z, y, -x+1/2'
   '-z, -y, x+1/2'
   'z, -y+1/2, x'
   '-z, y+1/2, -x'
   '-z+1/2, y, x'
   'z+1/2, -y, -x'
   '-z+1/2, -y+1/2, -x+1/2'
   'z+1/2, y+1/2, x+1/2'

loop_
   _atom_site_label
   _atom_site_occupancy
   _atom_site_fract_x
   _atom_site_fract_y
   _atom_site_fract_z
   _atom_site_adp_type
   _atom_site_B_iso_or_equiv
   _atom_site_type_symbol
   Nd1        1.0     0.000000     0.000000     0.000000    Biso  0.500000 Nd
   Nd2        1.0    -0.020000     0.250000     0.250000    Biso  0.500000 Nd
   Mo1        1.0     0.000000     0.750000     0.250000    Biso  0.950000 Mo
   O1         1.0     0.330000     0.070000    -0.130000    Biso  0.900000 O
   O2         1.0     0.128000     0.128000     0.128000    Biso  0.900000 O
