
#======================================================================
# CRYSTAL DATA
#----------------------------------------------------------------------
data_VESTA_phase_1

_chemical_name_common                  'Au2 O7 Se2'
_cell_length_a                         6.592(2)
_cell_length_b                         11.837(3)
_cell_length_c                         3.9980(10)
_cell_angle_alpha                      90.000000
_cell_angle_beta                       90.000000
_cell_angle_gamma                      90.000000
_cell_volume                           311.961947
_space_group_name_H-M_alt              'P b a 2'
_space_group_IT_number                 32

loop_
_space_group_symop_operation_xyz
   'x, y, z'
   '-x, -y, z'
   'x+1/2, -y+1/2, z'
   '-x+1/2, y+1/2, z'

loop_
   _atom_site_label
   _atom_site_occupancy
   _atom_site_fract_x
   _atom_site_fract_y
   _atom_site_fract_z
   _atom_site_adp_type
   _atom_site_B_iso_or_equiv
   _atom_site_type_symbol
   Au1        1.0     0.2005(4)    0.0680(2)    0.500000    Bani  0.881685 Au
   Se1        1.0     0.1341(10)   0.3268(7)    0.260(3)    Bani  1.323843 Se
   O1         1.0     0.337(7)    -0.087(5)     0.562(10)   Biso  0.036000 O
   O2         1.0     0.058(7)     0.214(5)     0.438(10)   Biso  0.036000 O
   O3         1.0     0.399(8)     0.133(5)     0.151(10)   Biso  0.036000 O
   O4         1.0     0.000000     0.000000     0.849(10)   Biso  0.036000 O

loop_
   _atom_site_aniso_label
   _atom_site_aniso_U_11
   _atom_site_aniso_U_22
   _atom_site_aniso_U_33
   _atom_site_aniso_U_12
   _atom_site_aniso_U_13
   _atom_site_aniso_U_23
   Au1	 0.01090  0.00480  0.01780 -0.00120 -0.00720  0.00790
   Se1	 0.02040  0.00960  0.02030  0.00270  0.00100  0.00100
