data_image0
_chemical_formula_structural       Cd4O16N8C8H8C16H16C16H16C8
_chemical_formula_sum              "Cd4 O16 N8 C48 H40"
_cell_length_a       8.2269
_cell_length_b       8.2269
_cell_length_c       18.103
_cell_angle_alpha    90.0
_cell_angle_beta     90.0
_cell_angle_gamma    90.0

_space_group_name_H-M_alt    "P 1"
_space_group_IT_number       1

loop_
  _space_group_symop_operation_xyz
  'x, y, z'

loop_
  _atom_site_type_symbol
  _atom_site_label
  _atom_site_symmetry_multiplicity
  _atom_site_fract_x
  _atom_site_fract_y
  _atom_site_fract_z
  _atom_site_occupancy
  Cd  Cd1       1.0  0.0  0.5  0.75  1.0000
  Cd  Cd2       1.0  0.5  0.0  0.25  1.0000
  Cd  Cd3       1.0  0.5  0.5  0.0  1.0000
  Cd  Cd4       1.0  0.0  0.0  0.5  1.0000
  O   O1        1.0  0.1521  0.6479  0.6650500000000003  1.0000
  O   O2        1.0  0.34790000000000004  0.8521  0.16505000000000014  1.0000
  O   O3        1.0  0.35209999999999997  0.6521  0.9150500000000003  1.0000
  O   O4        1.0  0.14789999999999992  0.8479  0.41505000000000014  1.0000
  O   O5        1.0  0.34790000000000004  0.6479  0.08494999999999986  1.0000
  O   O6        1.0  0.1521  0.8521  0.5849499999999999  1.0000
  O   O7        1.0  0.14789999999999992  0.6521  0.8349499999999999  1.0000
  O   O8        1.0  0.35209999999999997  0.8479  0.3349499999999999  1.0000
  O   O9        1.0  0.6521  0.14789999999999992  0.16505000000000014  1.0000
  O   O10       1.0  0.8479  0.35209999999999997  0.6650500000000003  1.0000
  O   O11       1.0  0.8521  0.1521  0.41505000000000014  1.0000
  O   O12       1.0  0.6479  0.34790000000000004  0.9150500000000003  1.0000
  O   O13       1.0  0.8479  0.14789999999999992  0.5849499999999999  1.0000
  O   O14       1.0  0.6521  0.35209999999999997  0.08494999999999986  1.0000
  O   O15       1.0  0.6479  0.1521  0.3349499999999999  1.0000
  O   O16       1.0  0.8521  0.34790000000000004  0.8349499999999999  1.0000
  N   N1        1.0  0.1982  0.3018000000000001  0.75  1.0000
  N   N2        1.0  0.30180000000000007  0.19819999999999993  0.25  1.0000
  N   N3        1.0  0.6981999999999999  0.6981999999999999  0.0  1.0000
  N   N4        1.0  0.8018000000000001  0.8018000000000001  0.5  1.0000
  N   N5        1.0  0.30180000000000007  0.3018000000000001  0.0  1.0000
  N   N6        1.0  0.1982  0.19819999999999993  0.5  1.0000
  N   N7        1.0  0.8018000000000001  0.6981999999999999  0.75  1.0000
  N   N8        1.0  0.6981999999999999  0.8018000000000001  0.25  1.0000
  C   C1        1.0  0.0885  0.75  0.6250000000000002  1.0000
  C   C2        1.0  0.4115  0.75  0.125  1.0000
  C   C3        1.0  0.25  0.5885  0.8750000000000002  1.0000
  C   C4        1.0  0.25  0.9115000000000001  0.375  1.0000
  C   C5        1.0  0.5885  0.25  0.125  1.0000
  C   C6        1.0  0.9115000000000001  0.25  0.6250000000000002  1.0000
  C   C7        1.0  0.75  0.0885  0.375  1.0000
  C   C8        1.0  0.75  0.4115  0.8750000000000002  1.0000
  H   H1        1.0  0.9718  0.75  0.6250000000000002  1.0000
  H   H2        1.0  0.5282  0.75  0.125  1.0000
  H   H3        1.0  0.25  0.4718  0.8750000000000002  1.0000
  H   H4        1.0  0.25  0.0282  0.375  1.0000
  H   H5        1.0  0.4718  0.25  0.125  1.0000
  H   H6        1.0  0.0282  0.25  0.6250000000000002  1.0000
  H   H7        1.0  0.75  0.9718  0.375  1.0000
  H   H8        1.0  0.75  0.5282  0.8750000000000002  1.0000
  C   C9        1.0  0.3461  0.332  0.7248300000000001  1.0000
  C   C10       1.0  0.15389999999999998  0.16799999999999998  0.2248300000000001  1.0000
  C   C11       1.0  0.6679999999999999  0.8461000000000001  0.9748300000000001  1.0000
  C   C12       1.0  0.8320000000000002  0.6538999999999999  0.47483000000000014  1.0000
  C   C13       1.0  0.15389999999999998  0.332  0.025169999999999918  1.0000
  C   C14       1.0  0.3461  0.16799999999999998  0.5251699999999999  1.0000
  C   C15       1.0  0.8320000000000002  0.8461000000000001  0.7751699999999999  1.0000
  C   C16       1.0  0.6679999999999999  0.6538999999999999  0.2751699999999999  1.0000
  C   C17       1.0  0.8461000000000001  0.8320000000000002  0.2248300000000001  1.0000
  C   C18       1.0  0.6538999999999999  0.6679999999999999  0.7248300000000001  1.0000
  C   C19       1.0  0.16799999999999998  0.3461  0.47483000000000014  1.0000
  C   C20       1.0  0.332  0.15389999999999998  0.9748300000000001  1.0000
  C   C21       1.0  0.6538999999999999  0.8320000000000002  0.5251699999999999  1.0000
  C   C22       1.0  0.8461000000000001  0.6679999999999999  0.025169999999999918  1.0000
  C   C23       1.0  0.332  0.3461  0.2751699999999999  1.0000
  C   C24       1.0  0.16799999999999998  0.15389999999999998  0.7751699999999999  1.0000
  H   H9        1.0  0.368  0.435  0.7062  1.0000
  H   H10       1.0  0.132  0.065  0.20619999999999994  1.0000
  H   H11       1.0  0.565  0.868  0.9562000000000002  1.0000
  H   H12       1.0  0.9350000000000002  0.632  0.45619999999999994  1.0000
  H   H13       1.0  0.132  0.435  0.04379999999999995  1.0000
  H   H14       1.0  0.368  0.065  0.5438  1.0000
  H   H15       1.0  0.9350000000000002  0.868  0.7938000000000001  1.0000
  H   H16       1.0  0.565  0.632  0.2938  1.0000
  H   H17       1.0  0.868  0.9350000000000002  0.20619999999999994  1.0000
  H   H18       1.0  0.632  0.565  0.7062  1.0000
  H   H19       1.0  0.065  0.368  0.45619999999999994  1.0000
  H   H20       1.0  0.435  0.132  0.9562000000000002  1.0000
  H   H21       1.0  0.632  0.9350000000000002  0.5438  1.0000
  H   H22       1.0  0.868  0.565  0.04379999999999995  1.0000
  H   H23       1.0  0.435  0.368  0.2938  1.0000
  H   H24       1.0  0.065  0.132  0.7938000000000001  1.0000
  C   C25       1.0  0.4696  0.2183  0.7249  1.0000
  C   C26       1.0  0.030399999999999986  0.2817  0.2248999999999999  1.0000
  C   C27       1.0  0.7817000000000001  0.9696  0.9749  1.0000
  C   C28       1.0  0.7182999999999999  0.5304  0.47489999999999993  1.0000
  C   C29       1.0  0.030399999999999986  0.2183  0.02510000000000001  1.0000
  C   C30       1.0  0.4696  0.2817  0.5251  1.0000
  C   C31       1.0  0.7182999999999999  0.9696  0.7751  1.0000
  C   C32       1.0  0.7817000000000001  0.5304  0.2751  1.0000
  C   C33       1.0  0.9696  0.7182999999999999  0.2248999999999999  1.0000
  C   C34       1.0  0.5304  0.7817000000000001  0.7249  1.0000
  C   C35       1.0  0.2817  0.4696  0.47489999999999993  1.0000
  C   C36       1.0  0.2183  0.030399999999999986  0.9749  1.0000
  C   C37       1.0  0.5304  0.7182999999999999  0.5251  1.0000
  C   C38       1.0  0.9696  0.7817000000000001  0.02510000000000001  1.0000
  C   C39       1.0  0.2183  0.4696  0.2751  1.0000
  C   C40       1.0  0.2817  0.030399999999999986  0.7751  1.0000
  H   H25       1.0  0.5731  0.2454  0.7083000000000002  1.0000
  H   H26       1.0  0.9269000000000001  0.2546  0.20830000000000015  1.0000
  H   H27       1.0  0.7545999999999999  0.07310000000000016  0.9583000000000002  1.0000
  H   H28       1.0  0.7454000000000001  0.42689999999999995  0.4583000000000002  1.0000
  H   H29       1.0  0.9269000000000001  0.2454  0.04169999999999985  1.0000
  H   H30       1.0  0.5731  0.2546  0.5416999999999998  1.0000
  H   H31       1.0  0.7454000000000001  0.07310000000000016  0.7916999999999998  1.0000
  H   H32       1.0  0.7545999999999999  0.42689999999999995  0.29169999999999985  1.0000
  H   H33       1.0  0.07310000000000016  0.7454000000000001  0.20830000000000015  1.0000
  H   H34       1.0  0.42689999999999995  0.7545999999999999  0.7083000000000002  1.0000
  H   H35       1.0  0.2546  0.5731  0.4583000000000002  1.0000
  H   H36       1.0  0.2454  0.9269000000000001  0.9583000000000002  1.0000
  H   H37       1.0  0.42689999999999995  0.7454000000000001  0.5416999999999998  1.0000
  H   H38       1.0  0.07310000000000016  0.7545999999999999  0.04169999999999985  1.0000
  H   H39       1.0  0.2454  0.5731  0.29169999999999985  1.0000
  H   H40       1.0  0.2546  0.9269000000000001  0.7916999999999998  1.0000
  C   C41       1.0  0.4359  0.0641  0.75  1.0000
  C   C42       1.0  0.06409999999999999  0.4359  0.25  1.0000
  C   C43       1.0  0.9359  0.9359  0.0  1.0000
  C   C44       1.0  0.5641  0.5641  0.5  1.0000
  C   C45       1.0  0.06409999999999999  0.0641  0.0  1.0000
  C   C46       1.0  0.4359  0.4359  0.5  1.0000
  C   C47       1.0  0.5641  0.9359  0.75  1.0000
  C   C48       1.0  0.9359  0.5641  0.25  1.0000
