data_image0
_chemical_formula_structural       C32H48N16Cu8N32C40H8
_chemical_formula_sum              "C72 H56 N48 Cu8"
_cell_length_a       9.281
_cell_length_b       9.281
_cell_length_c       22.07
_cell_angle_alpha    90.0
_cell_angle_beta     90.0
_cell_angle_gamma    90.0

_space_group_name_H-M_alt    "P 1"
_space_group_IT_number       1

loop_
  _space_group_symop_operation_xyz
  'x, y, z'

loop_
  _atom_site_type_symbol
  _atom_site_label
  _atom_site_symmetry_multiplicity
  _atom_site_fract_x
  _atom_site_fract_y
  _atom_site_fract_z
  _atom_site_occupancy
  C   C1        1.0  0.739  0.7669999999999999  0.06399999999999999  0.2500
  C   C2        1.0  0.2330000000000001  0.23899999999999988  0.314  0.2500
  C   C3        1.0  0.761  0.7330000000000001  0.564  0.2500
  C   C4        1.0  0.26699999999999985  0.261  0.814  0.2500
  C   C5        1.0  0.739  0.7330000000000001  0.18599999999999997  0.2500
  C   C6        1.0  0.26699999999999985  0.23899999999999988  0.43599999999999994  0.2500
  C   C7        1.0  0.761  0.7669999999999999  0.686  0.2500
  C   C8        1.0  0.2330000000000001  0.261  0.9359999999999999  0.2500
  C   C9        1.0  0.23899999999999988  0.26699999999999985  0.564  0.2500
  C   C10       1.0  0.7330000000000001  0.739  0.814  0.2500
  C   C11       1.0  0.261  0.2330000000000001  0.06399999999999999  0.2500
  C   C12       1.0  0.7669999999999999  0.761  0.314  0.2500
  C   C13       1.0  0.23899999999999988  0.2330000000000001  0.686  0.2500
  C   C14       1.0  0.7669999999999999  0.739  0.9359999999999999  0.2500
  C   C15       1.0  0.261  0.26699999999999985  0.18599999999999997  0.2500
  C   C16       1.0  0.7330000000000001  0.761  0.43599999999999994  0.2500
  C   C17       1.0  0.683  0.724  0.11  0.2500
  C   C18       1.0  0.276  0.18300000000000005  0.36  0.2500
  C   C19       1.0  0.8169999999999998  0.776  0.61  0.2500
  C   C20       1.0  0.22399999999999998  0.31699999999999995  0.8599999999999999  0.2500
  C   C21       1.0  0.683  0.776  0.14  0.2500
  C   C22       1.0  0.22399999999999998  0.18300000000000005  0.38999999999999996  0.2500
  C   C23       1.0  0.8169999999999998  0.724  0.64  0.2500
  C   C24       1.0  0.276  0.31699999999999995  0.89  0.2500
  C   C25       1.0  0.18300000000000005  0.22399999999999998  0.61  0.2500
  C   C26       1.0  0.776  0.683  0.8599999999999999  0.2500
  C   C27       1.0  0.31699999999999995  0.276  0.11  0.2500
  C   C28       1.0  0.724  0.8169999999999998  0.36  0.2500
  C   C29       1.0  0.18300000000000005  0.276  0.64  0.2500
  C   C30       1.0  0.724  0.683  0.89  0.2500
  C   C31       1.0  0.31699999999999995  0.22399999999999998  0.14  0.2500
  C   C32       1.0  0.776  0.8169999999999998  0.38999999999999996  0.2500
  H   H1        1.0  0.7286  0.6362  0.12209999999999997  0.2500
  H   H2        1.0  0.3638  0.2286000000000001  0.37209999999999993  0.2500
  H   H3        1.0  0.7714  0.8638  0.6221  0.2500
  H   H4        1.0  0.1362000000000001  0.2714  0.8721  0.2500
  H   H5        1.0  0.7286  0.8638  0.1279  0.2500
  H   H6        1.0  0.1362000000000001  0.2286000000000001  0.3779  0.2500
  H   H7        1.0  0.7714  0.6362  0.6279  0.2500
  H   H8        1.0  0.3638  0.2714  0.8779  0.2500
  H   H9        1.0  0.2286000000000001  0.1362000000000001  0.6221  0.2500
  H   H10       1.0  0.8638  0.7286  0.8721  0.2500
  H   H11       1.0  0.2714  0.3638  0.12209999999999997  0.2500
  H   H12       1.0  0.6362  0.7714  0.37209999999999993  0.2500
  H   H13       1.0  0.2286000000000001  0.3638  0.6279  0.2500
  H   H14       1.0  0.6362  0.7286  0.8779  0.2500
  H   H15       1.0  0.2714  0.1362000000000001  0.1279  0.2500
  H   H16       1.0  0.8638  0.7714  0.3779  0.2500
  H   H17       1.0  0.5824  0.7058999999999999  0.102  0.2500
  H   H18       1.0  0.29410000000000014  0.08240000000000001  0.3519999999999999  0.2500
  H   H19       1.0  0.9175999999999999  0.7941000000000001  0.602  0.2500
  H   H20       1.0  0.20589999999999975  0.41759999999999997  0.852  0.2500
  H   H21       1.0  0.5824  0.7941000000000001  0.14800000000000002  0.2500
  H   H22       1.0  0.20589999999999975  0.08240000000000001  0.398  0.2500
  H   H23       1.0  0.9175999999999999  0.7058999999999999  0.648  0.2500
  H   H24       1.0  0.29410000000000014  0.41759999999999997  0.8979999999999999  0.2500
  H   H25       1.0  0.08240000000000001  0.20589999999999975  0.602  0.2500
  H   H26       1.0  0.7941000000000001  0.5824  0.852  0.2500
  H   H27       1.0  0.41759999999999997  0.29410000000000014  0.102  0.2500
  H   H28       1.0  0.7058999999999999  0.9175999999999999  0.3519999999999999  0.2500
  H   H29       1.0  0.08240000000000001  0.29410000000000014  0.648  0.2500
  H   H30       1.0  0.7058999999999999  0.5824  0.8979999999999999  0.2500
  H   H31       1.0  0.41759999999999997  0.20589999999999975  0.14800000000000002  0.2500
  H   H32       1.0  0.7941000000000001  0.9175999999999999  0.398  0.2500
  H   H33       1.0  0.6921999999999999  0.795  0.14089999999999997  0.2500
  H   H34       1.0  0.20499999999999993  0.19219999999999993  0.39089999999999997  0.2500
  H   H35       1.0  0.8078000000000001  0.7049999999999998  0.6409  0.2500
  H   H36       1.0  0.29499999999999993  0.3078000000000001  0.8908999999999999  0.2500
  H   H37       1.0  0.6921999999999999  0.7049999999999998  0.10910000000000002  0.2500
  H   H38       1.0  0.29499999999999993  0.19219999999999993  0.35910000000000003  0.2500
  H   H39       1.0  0.8078000000000001  0.795  0.6090999999999999  0.2500
  H   H40       1.0  0.20499999999999993  0.3078000000000001  0.8590999999999999  0.2500
  H   H41       1.0  0.19219999999999993  0.29499999999999993  0.6409  0.2500
  H   H42       1.0  0.7049999999999998  0.6921999999999999  0.8908999999999999  0.2500
  H   H43       1.0  0.3078000000000001  0.20499999999999993  0.14089999999999997  0.2500
  H   H44       1.0  0.795  0.8078000000000001  0.39089999999999997  0.2500
  H   H45       1.0  0.19219999999999993  0.20499999999999993  0.6090999999999999  0.2500
  H   H46       1.0  0.795  0.6921999999999999  0.8590999999999999  0.2500
  H   H47       1.0  0.3078000000000001  0.29499999999999993  0.10910000000000002  0.2500
  H   H48       1.0  0.7049999999999998  0.8078000000000001  0.35910000000000003  0.2500
  N   N1        1.0  0.781  0.78  0.018  0.2500
  N   N2        1.0  0.21999999999999997  0.2810000000000001  0.268  0.2500
  N   N3        1.0  0.719  0.7199999999999999  0.518  0.2500
  N   N4        1.0  0.28  0.21899999999999997  0.768  0.2500
  N   N5        1.0  0.781  0.7199999999999999  0.23199999999999998  0.2500
  N   N6        1.0  0.28  0.2810000000000001  0.48199999999999993  0.2500
  N   N7        1.0  0.719  0.78  0.7319999999999999  0.2500
  N   N8        1.0  0.21999999999999997  0.21899999999999997  0.982  0.2500
  N   N9        1.0  0.2810000000000001  0.28  0.518  0.2500
  N   N10       1.0  0.7199999999999999  0.781  0.768  0.2500
  N   N11       1.0  0.21899999999999997  0.21999999999999997  0.018  0.2500
  N   N12       1.0  0.78  0.719  0.268  0.2500
  N   N13       1.0  0.2810000000000001  0.21999999999999997  0.7319999999999999  0.2500
  N   N14       1.0  0.78  0.781  0.982  0.2500
  N   N15       1.0  0.21899999999999997  0.28  0.23199999999999998  0.2500
  N   N16       1.0  0.7199999999999999  0.719  0.48199999999999993  0.2500
  Cu  Cu1       1.0  0.25  0.7892299999999999  0.875  1.0000
  Cu  Cu2       1.0  0.21077000000000012  0.75  0.12499999999999999  1.0000
  Cu  Cu3       1.0  0.25  0.7107700000000001  0.375  1.0000
  Cu  Cu4       1.0  0.2892299999999999  0.75  0.6249999999999999  1.0000
  Cu  Cu5       1.0  0.75  0.2892299999999999  0.375  1.0000
  Cu  Cu6       1.0  0.7107700000000001  0.25  0.6249999999999999  1.0000
  Cu  Cu7       1.0  0.75  0.21077000000000012  0.875  1.0000
  Cu  Cu8       1.0  0.7892299999999999  0.25  0.12499999999999999  1.0000
  N   N17       1.0  0.1623  0.6769  0.9409  1.0000
  N   N18       1.0  0.32310000000000005  0.6623  0.19090000000000004  1.0000
  N   N19       1.0  0.3377  0.8230999999999999  0.4409  1.0000
  N   N20       1.0  0.17689999999999984  0.8376999999999999  0.6909000000000001  1.0000
  N   N21       1.0  0.1623  0.8230999999999999  0.30910000000000004  1.0000
  N   N22       1.0  0.17689999999999984  0.6623  0.5590999999999999  1.0000
  N   N23       1.0  0.3377  0.6769  0.8091  1.0000
  N   N24       1.0  0.32310000000000005  0.8376999999999999  0.05910000000000004  1.0000
  N   N25       1.0  0.6623  0.17689999999999984  0.4409  1.0000
  N   N26       1.0  0.8230999999999999  0.1623  0.6909000000000001  1.0000
  N   N27       1.0  0.8376999999999999  0.32310000000000005  0.9409  1.0000
  N   N28       1.0  0.6769  0.3377  0.19090000000000004  1.0000
  N   N29       1.0  0.6623  0.32310000000000005  0.8091  1.0000
  N   N30       1.0  0.6769  0.1623  0.05910000000000004  1.0000
  N   N31       1.0  0.8376999999999999  0.17689999999999984  0.30910000000000004  1.0000
  N   N32       1.0  0.8230999999999999  0.3377  0.5590999999999999  1.0000
  N   N33       1.0  0.0808  0.5907  0.09109999999999974  1.0000
  N   N34       1.0  0.4093  0.5807999999999999  0.34109999999999974  1.0000
  N   N35       1.0  0.4192  0.9093  0.5910999999999997  1.0000
  N   N36       1.0  0.0907  0.9192  0.8410999999999996  1.0000
  N   N37       1.0  0.0808  0.9093  0.15890000000000024  1.0000
  N   N38       1.0  0.0907  0.5807999999999999  0.4089000000000002  1.0000
  N   N39       1.0  0.4192  0.5907  0.6589000000000003  1.0000
  N   N40       1.0  0.4093  0.9192  0.9089000000000002  1.0000
  N   N41       1.0  0.5807999999999999  0.0907  0.5910999999999997  1.0000
  N   N42       1.0  0.9093  0.0808  0.8410999999999996  1.0000
  N   N43       1.0  0.9192  0.4093  0.09109999999999974  1.0000
  N   N44       1.0  0.5907  0.4192  0.34109999999999974  1.0000
  N   N45       1.0  0.5807999999999999  0.4093  0.6589000000000003  1.0000
  N   N46       1.0  0.5907  0.0808  0.9089000000000002  1.0000
  N   N47       1.0  0.9192  0.0907  0.15890000000000024  1.0000
  N   N48       1.0  0.9093  0.4192  0.4089000000000002  1.0000
  C   C33       1.0  0.11179999999999998  0.6257  0.9827  1.0000
  C   C34       1.0  0.37429999999999997  0.6118  0.2326999999999999  1.0000
  C   C35       1.0  0.3882  0.8743  0.48269999999999985  1.0000
  C   C36       1.0  0.12570000000000014  0.8882  0.7326999999999999  1.0000
  C   C37       1.0  0.11179999999999998  0.8743  0.2673  1.0000
  C   C38       1.0  0.12570000000000014  0.6118  0.5172999999999999  1.0000
  C   C39       1.0  0.3882  0.6257  0.7673  1.0000
  C   C40       1.0  0.37429999999999997  0.8882  0.017299999999999982  1.0000
  C   C41       1.0  0.6118  0.12570000000000014  0.48269999999999985  1.0000
  C   C42       1.0  0.8743  0.11179999999999998  0.7326999999999999  1.0000
  C   C43       1.0  0.8882  0.37429999999999997  0.9827  1.0000
  C   C44       1.0  0.6257  0.3882  0.2326999999999999  1.0000
  C   C45       1.0  0.6118  0.37429999999999997  0.7673  1.0000
  C   C46       1.0  0.6257  0.11179999999999998  0.017299999999999982  1.0000
  C   C47       1.0  0.8882  0.12570000000000014  0.2673  1.0000
  C   C48       1.0  0.8743  0.3882  0.5172999999999999  1.0000
  C   C49       1.0  0.050599999999999985  0.5555  0.03259999999999996  1.0000
  C   C50       1.0  0.44449999999999995  0.5505999999999999  0.28259999999999996  1.0000
  C   C51       1.0  0.4494  0.9445  0.5326  1.0000
  C   C52       1.0  0.055499999999999876  0.9493999999999999  0.7825999999999999  1.0000
  C   C53       1.0  0.050599999999999985  0.9445  0.2174  1.0000
  C   C54       1.0  0.055499999999999876  0.5505999999999999  0.4674  1.0000
  C   C55       1.0  0.4494  0.5555  0.7174  1.0000
  C   C56       1.0  0.44449999999999995  0.9493999999999999  0.9673999999999999  1.0000
  C   C57       1.0  0.5505999999999999  0.055499999999999876  0.5326  1.0000
  C   C58       1.0  0.9445  0.050599999999999985  0.7825999999999999  1.0000
  C   C59       1.0  0.9493999999999999  0.44449999999999995  0.03259999999999996  1.0000
  C   C60       1.0  0.5555  0.4494  0.28259999999999996  1.0000
  C   C61       1.0  0.5505999999999999  0.44449999999999995  0.7174  1.0000
  C   C62       1.0  0.5555  0.050599999999999985  0.9673999999999999  1.0000
  C   C63       1.0  0.9493999999999999  0.055499999999999876  0.2174  1.0000
  C   C64       1.0  0.9445  0.4494  0.4674  1.0000
  C   C65       1.0  0.0  0.5  0.12270000000000003  1.0000
  C   C66       1.0  0.5  0.5  0.37270000000000003  1.0000
  C   C67       1.0  0.5  0.0  0.6227  1.0000
  C   C68       1.0  0.0  0.0  0.8726999999999999  1.0000
  C   C69       1.0  0.0  0.0  0.12729999999999994  1.0000
  C   C70       1.0  0.0  0.5  0.3772999999999999  1.0000
  C   C71       1.0  0.5  0.5  0.6272999999999999  1.0000
  C   C72       1.0  0.5  0.0  0.8772999999999999  1.0000
  H   H49       1.0  0.0  0.5  0.16480000000000003  1.0000
  H   H50       1.0  0.5  0.5  0.41480000000000006  1.0000
  H   H51       1.0  0.5  0.0  0.6648000000000001  1.0000
  H   H52       1.0  0.0  0.0  0.9148  1.0000
  H   H53       1.0  0.0  0.0  0.08519999999999994  1.0000
  H   H54       1.0  0.0  0.5  0.3351999999999999  1.0000
  H   H55       1.0  0.5  0.5  0.5851999999999998  1.0000
  H   H56       1.0  0.5  0.0  0.8351999999999998  1.0000
