
#======================================================================
# CRYSTAL DATA
#----------------------------------------------------------------------
data_VESTA_phase_1

_chemical_name_common                  'Ni2 Y3'
_cell_length_a                         7.1040(10)
_cell_length_b                         7.1040(10)
_cell_length_c                         36.597(5)
_cell_angle_alpha                      90.000000
_cell_angle_beta                       90.000000
_cell_angle_gamma                      90.000000
_cell_volume                           1846.934119
_space_group_name_H-M_alt              'P 41 21 2'
_space_group_IT_number                 92

loop_
_space_group_symop_operation_xyz
   'x, y, z'
   '-x, -y, z+1/2'
   '-y+1/2, x+1/2, z+1/4'
   'y+1/2, -x+1/2, z+3/4'
   '-x+1/2, y+1/2, -z+1/4'
   'x+1/2, -y+1/2, -z+3/4'
   'y, x, -z'
   '-y, -x, -z+1/2'

loop_
   _atom_site_label
   _atom_site_occupancy
   _atom_site_fract_x
   _atom_site_fract_y
   _atom_site_fract_z
   _atom_site_adp_type
   _atom_site_B_iso_or_equiv
   _atom_site_type_symbol
   Y1         1.0     0.966(2)     0.966(2)     0.000000    Biso  2.100000 Y
   Y2         1.0     0.317(2)     0.317(2)     0.000000    Biso  1.600000 Y
   Y3         1.0     0.808(2)     0.443(2)     0.0156(4)   Biso  1.300000 Y
   Y4         1.0     0.163(2)     0.659(2)     0.0680(4)   Biso  1.100000 Y
   Y5         1.0     0.645(2)     0.809(2)     0.0747(4)   Biso  1.200000 Y
   Y6         1.0     0.012(2)     0.163(2)     0.0891(4)   Biso  1.200000 Y
   Y7         1.0     0.514(2)     0.293(2)     0.0933(4)   Biso  1.400000 Y
   Ni1        1.0     0.310(3)     0.008(3)     0.0484(4)   Biso  1.000000 Ni
   Ni2        1.0     0.630(3)     0.101(3)     0.0257(5)   Biso  1.600000 Ni
   Ni3        1.0     0.840(3)     0.510(3)     0.1063(5)   Biso  1.200000 Ni
   Ni4        1.0     0.322(3)     0.943(3)     0.1167(5)   Biso  1.000000 Ni
