data_image0
_chemical_formula_structural       Cu18P12O90C84H48
_chemical_formula_sum              "Cu18 P12 O90 C84 H48"
_cell_length_a       14.656
_cell_length_b       14.655999999999999
_cell_length_c       16.905
_cell_angle_alpha    90.0
_cell_angle_beta     90.0
_cell_angle_gamma    119.99999999999999

_space_group_name_H-M_alt    "P 1"
_space_group_IT_number       1

loop_
  _space_group_symop_operation_xyz
  'x, y, z'

loop_
  _atom_site_type_symbol
  _atom_site_label
  _atom_site_symmetry_multiplicity
  _atom_site_fract_x
  _atom_site_fract_y
  _atom_site_fract_z
  _atom_site_occupancy
  Cu  Cu1       1.0  0.11674000000000005  0.4394400000000001  0.19164000000000006  1.0000
  Cu  Cu2       1.0  0.6773  0.11674000000000004  0.024973333333333517  1.0000
  Cu  Cu3       1.0  0.56056  0.88326  0.9750266666666667  1.0000
  Cu  Cu4       1.0  0.56056  0.6773  0.8583066666666667  1.0000
  Cu  Cu5       1.0  0.6773  0.56056  0.80836  1.0000
  Cu  Cu6       1.0  0.8832599999999999  0.56056  0.6916400000000001  1.0000
  Cu  Cu7       1.0  0.11674000000000002  0.6773  0.6416933333333333  1.0000
  Cu  Cu8       1.0  0.3227000000000001  0.88326  0.5249733333333333  1.0000
  Cu  Cu9       1.0  0.43944  0.11674000000000004  0.47502666666666665  1.0000
  Cu  Cu10      1.0  0.43944  0.32270000000000004  0.35830666666666666  1.0000
  Cu  Cu11      1.0  0.32270000000000004  0.4394400000000001  0.30836  1.0000
  Cu  Cu12      1.0  0.8832599999999999  0.32270000000000004  0.14169333333333328  1.0000
  Cu  Cu13      1.0  0.9999999999999999  0.16385  0.166667  1.0000
  Cu  Cu14      1.0  0.8361499999999998  0.0  3.3333333337992604e-07  1.0000
  Cu  Cu15      1.0  0.8361499999999998  0.8361500000000001  0.8333336666666668  1.0000
  Cu  Cu16      1.0  3.404646773145142e-17  0.8361500000000001  0.666667  1.0000
  Cu  Cu17      1.0  0.16385  6.290892115822518e-18  0.5000003333333334  1.0000
  Cu  Cu18      1.0  0.16385  0.16385  0.33333366666666664  1.0000
  P   P1        1.0  0.235  0.31562  0.1609  1.0000
  P   P2        1.0  0.9193799999999999  0.235  0.9942333333333333  1.0000
  P   P3        1.0  0.6843799999999999  0.765  0.00576666666666667  1.0000
  P   P4        1.0  0.6843799999999999  0.91938  0.8275666666666666  1.0000
  P   P5        1.0  0.91938  0.6843800000000001  0.8391  1.0000
  P   P6        1.0  0.7650000000000001  0.6843800000000001  0.6609000000000002  1.0000
  P   P7        1.0  0.235  0.91938  0.6724333333333334  1.0000
  P   P8        1.0  0.08061999999999998  0.765  0.4942333333333333  1.0000
  P   P9        1.0  0.31562  0.235  0.5057666666666668  1.0000
  P   P10       1.0  0.31562  0.08062000000000002  0.3275666666666667  1.0000
  P   P11       1.0  0.08062000000000002  0.31562  0.33910000000000007  1.0000
  P   P12       1.0  0.7649999999999999  0.08062000000000002  0.17243333333333336  1.0000
  O   O1        1.0  0.2553  0.3018  0.2492  1.0000
  O   O2        1.0  0.9534999999999999  0.2553  0.08253333333333335  1.0000
  O   O3        1.0  0.6982  0.7447  0.9174666666666667  1.0000
  O   O4        1.0  0.6981999999999999  0.9535000000000001  0.9158666666666666  1.0000
  O   O5        1.0  0.9534999999999999  0.6981999999999999  0.7508  1.0000
  O   O6        1.0  0.7446999999999999  0.6981999999999999  0.7492  1.0000
  O   O7        1.0  0.2553000000000001  0.9535000000000001  0.5841333333333335  1.0000
  O   O8        1.0  0.04650000000000003  0.7447  0.5825333333333335  1.0000
  O   O9        1.0  0.3018  0.2553  0.4174666666666667  1.0000
  O   O10       1.0  0.3018  0.046499999999999986  0.4158666666666667  1.0000
  O   O11       1.0  0.04649999999999998  0.3018  0.2508  1.0000
  O   O12       1.0  0.7446999999999999  0.046499999999999986  0.08413333333333331  1.0000
  O   O13       1.0  0.22639999999999993  0.4146  0.1477  1.0000
  O   O14       1.0  0.8117999999999999  0.22639999999999996  0.9810333333333335  1.0000
  O   O15       1.0  0.5853999999999999  0.7736000000000001  0.01896666666666666  1.0000
  O   O16       1.0  0.5853999999999999  0.8118  0.8143666666666667  1.0000
  O   O17       1.0  0.8117999999999999  0.5853999999999999  0.8523000000000001  1.0000
  O   O18       1.0  0.7736  0.5853999999999999  0.6477  1.0000
  O   O19       1.0  0.22639999999999993  0.8118  0.6856333333333333  1.0000
  O   O20       1.0  0.18820000000000003  0.7736000000000001  0.4810333333333333  1.0000
  O   O21       1.0  0.4146  0.22639999999999996  0.5189666666666667  1.0000
  O   O22       1.0  0.4146  0.18820000000000006  0.3143666666666667  1.0000
  O   O23       1.0  0.18820000000000003  0.4146  0.35230000000000006  1.0000
  O   O24       1.0  0.7736  0.18820000000000006  0.18563333333333334  1.0000
  O   O25       1.0  0.1381  0.217  0.1302  1.0000
  O   O26       1.0  0.9210999999999999  0.1381  0.9635333333333335  1.0000
  O   O27       1.0  0.783  0.8619  0.03646666666666665  1.0000
  O   O28       1.0  0.783  0.9211000000000001  0.7968666666666666  1.0000
  O   O29       1.0  0.9210999999999999  0.783  0.8698  1.0000
  O   O30       1.0  0.8618999999999999  0.783  0.6302000000000001  1.0000
  O   O31       1.0  0.13810000000000006  0.9211000000000001  0.7031333333333334  1.0000
  O   O32       1.0  0.0789  0.8619  0.4635333333333334  1.0000
  O   O33       1.0  0.21699999999999997  0.1381  0.5364666666666668  1.0000
  O   O34       1.0  0.21699999999999997  0.0789  0.29686666666666667  1.0000
  O   O35       1.0  0.0789  0.217  0.3698000000000001  1.0000
  O   O36       1.0  0.8618999999999999  0.0789  0.20313333333333333  1.0000
  O   O37       1.0  0.5011  0.5478  0.9225000000000001  1.0000
  O   O38       1.0  0.9532999999999999  0.5011  0.7558333333333334  1.0000
  O   O39       1.0  0.4522000000000001  0.49890000000000007  0.2441666666666667  1.0000
  O   O40       1.0  0.4522  0.9533  0.5891666666666666  1.0000
  O   O41       1.0  0.9532999999999999  0.4522000000000001  0.07750000000000003  1.0000
  O   O42       1.0  0.4989  0.4522000000000001  0.4225  1.0000
  O   O43       1.0  0.5011  0.9533  0.9108333333333334  1.0000
  O   O44       1.0  0.046699999999999985  0.49890000000000007  0.25583333333333336  1.0000
  O   O45       1.0  0.5478  0.5011  0.7441666666666668  1.0000
  O   O46       1.0  0.5478  0.046699999999999964  0.08916666666666664  1.0000
  O   O47       1.0  0.04669999999999994  0.5478  0.5775  1.0000
  O   O48       1.0  0.49889999999999995  0.046699999999999964  0.41083333333333333  1.0000
  O   O49       1.0  0.6009  0.4729  0.8968  1.0000
  O   O50       1.0  0.128  0.6009  0.7301333333333335  1.0000
  O   O51       1.0  0.5271  0.3991  0.26986666666666664  1.0000
  O   O52       1.0  0.5271  0.128  0.5634666666666667  1.0000
  O   O53       1.0  0.128  0.5271  0.1032  1.0000
  O   O54       1.0  0.39909999999999995  0.5271  0.3968  1.0000
  O   O55       1.0  0.6009  0.128  0.9365333333333334  1.0000
  O   O56       1.0  0.8719999999999999  0.3991  0.23013333333333333  1.0000
  O   O57       1.0  0.4729  0.6009  0.7698666666666666  1.0000
  O   O58       1.0  0.4729  0.872  0.06346666666666666  1.0000
  O   O59       1.0  0.8719999999999999  0.4729  0.6032  1.0000
  O   O60       1.0  0.39909999999999995  0.872  0.43653333333333333  1.0000
  O   O61       1.0  0.2903  0.5805  0.25  1.0000
  O   O62       1.0  0.7097999999999999  0.2903  0.08333333333333348  1.0000
  O   O63       1.0  0.41949999999999993  0.7097  0.9166666666666666  1.0000
  O   O64       1.0  0.7097999999999999  0.41950000000000004  0.75  1.0000
  O   O65       1.0  0.29030000000000006  0.7098000000000001  0.5833333333333335  1.0000
  O   O66       1.0  0.5805  0.2903  0.4166666666666667  1.0000
  O   O67       1.0  0.3693000000000001  0.6307000000000001  0.08333300000000003  1.0000
  O   O68       1.0  0.7385999999999999  0.3693000000000001  0.9166663333333334  1.0000
  O   O69       1.0  0.36929999999999985  0.7385999999999999  0.7499996666666666  1.0000
  O   O70       1.0  0.6306999999999998  0.36929999999999985  0.5833330000000001  1.0000
  O   O71       1.0  0.2614000000000001  0.6306999999999999  0.4166663333333334  1.0000
  O   O72       1.0  0.6307000000000001  0.2614000000000001  0.24999966666666668  1.0000
  O   O73       1.0  0.139  0.12400000000000001  0.9849  0.5000
  O   O74       1.0  0.014999999999999994  0.139  0.8182333333333335  0.5000
  O   O75       1.0  0.8759999999999999  0.861  0.18176666666666666  0.5000
  O   O76       1.0  0.8759999999999999  0.015000000000000001  0.6515666666666666  0.5000
  O   O77       1.0  0.015000000000000055  0.8760000000000001  0.015100000000000002  0.5000
  O   O78       1.0  0.861  0.8760000000000001  0.4849  0.5000
  O   O79       1.0  0.139  0.015000000000000001  0.8484333333333335  0.5000
  O   O80       1.0  0.985  0.861  0.3182333333333333  0.5000
  O   O81       1.0  0.12400000000000001  0.139  0.6817666666666666  0.5000
  O   O82       1.0  0.12399999999999999  0.985  0.15156666666666668  0.5000
  O   O83       1.0  0.985  0.12400000000000001  0.5151  0.5000
  O   O84       1.0  0.861  0.985  0.3484333333333333  0.5000
  O   O85       1.0  0.9662000000000001  0.0338  0.08333300000000003  1.0000
  O   O86       1.0  0.9323999999999999  0.9662000000000001  0.9166663333333334  1.0000
  O   O87       1.0  0.9662  0.9324  0.7499996666666666  1.0000
  O   O88       1.0  0.03380000000000005  0.9662000000000001  0.5833330000000001  1.0000
  O   O89       1.0  0.06759999999999998  0.03379999999999999  0.4166663333333334  1.0000
  O   O90       1.0  0.03379999999999999  0.0676  0.24999966666666668  1.0000
  C   C1        1.0  0.3428  0.3222  0.1021  1.0000
  C   C2        1.0  0.020600000000000028  0.34280000000000005  0.9354333333333334  1.0000
  C   C3        1.0  0.6778  0.6572  0.06456666666666667  1.0000
  C   C4        1.0  0.6778  0.02060000000000001  0.7687666666666666  1.0000
  C   C5        1.0  0.02060000000000003  0.6778000000000001  0.8979  1.0000
  C   C6        1.0  0.6572  0.6778000000000001  0.6021  1.0000
  C   C7        1.0  0.3428  0.02060000000000001  0.7312333333333335  1.0000
  C   C8        1.0  0.9794  0.6572  0.43543333333333334  1.0000
  C   C9        1.0  0.32219999999999993  0.34280000000000005  0.5645666666666667  1.0000
  C   C10       1.0  0.3222  0.9794000000000002  0.2687666666666667  1.0000
  C   C11       1.0  0.9794  0.3222  0.39790000000000003  1.0000
  C   C12       1.0  0.6572  0.9794000000000002  0.23123333333333335  1.0000
  C   C13       1.0  0.3924999999999999  0.3971  0.0418  1.0000
  C   C14       1.0  0.9953999999999998  0.39249999999999996  0.8751333333333333  1.0000
  C   C15       1.0  0.6028999999999999  0.6075  0.12486666666666667  1.0000
  C   C16       1.0  0.6028999999999999  0.9954  0.7084666666666666  1.0000
  C   C17       1.0  0.9953999999999998  0.6029  0.9582  1.0000
  C   C18       1.0  0.6074999999999999  0.6029  0.5418  1.0000
  C   C19       1.0  0.3924999999999999  0.9954  0.7915333333333335  1.0000
  C   C20       1.0  0.0046000000000000745  0.6075  0.3751333333333333  1.0000
  C   C21       1.0  0.39709999999999995  0.39249999999999996  0.6248666666666668  1.0000
  C   C22       1.0  0.39709999999999995  0.0046000000000000485  0.2084666666666667  1.0000
  C   C23       1.0  0.004600000000000042  0.3971  0.4582  1.0000
  C   C24       1.0  0.6074999999999999  0.0046000000000000485  0.29153333333333337  1.0000
  C   C25       1.0  0.47  0.3951  0.9958000000000001  1.0000
  C   C26       1.0  0.07489999999999998  0.47  0.8291333333333334  1.0000
  C   C27       1.0  0.6049  0.53  0.17086666666666667  1.0000
  C   C28       1.0  0.6049  0.07489999999999997  0.6624666666666666  1.0000
  C   C29       1.0  0.07489999999999998  0.6049  0.0042  1.0000
  C   C30       1.0  0.5299999999999999  0.6049  0.4958000000000001  1.0000
  C   C31       1.0  0.47  0.07489999999999997  0.8375333333333334  1.0000
  C   C32       1.0  0.9250999999999999  0.53  0.3291333333333334  1.0000
  C   C33       1.0  0.39509999999999995  0.47  0.6708666666666667  1.0000
  C   C34       1.0  0.39509999999999995  0.9251  0.16246666666666668  1.0000
  C   C35       1.0  0.9250999999999999  0.3951  0.5042  1.0000
  C   C36       1.0  0.5299999999999999  0.9251  0.3375333333333333  1.0000
  C   C37       1.0  0.4977999999999999  0.3169  0.0094  1.0000
  C   C38       1.0  0.18089999999999995  0.49779999999999996  0.8427333333333334  1.0000
  C   C39       1.0  0.6830999999999999  0.5022  0.15726666666666667  1.0000
  C   C40       1.0  0.6830999999999999  0.18089999999999998  0.6760666666666666  1.0000
  C   C41       1.0  0.18089999999999995  0.6831  0.9906000000000001  1.0000
  C   C42       1.0  0.5022  0.6831  0.5094  1.0000
  C   C43       1.0  0.49779999999999996  0.18089999999999998  0.8239333333333335  1.0000
  C   C44       1.0  0.8190999999999999  0.5022  0.3427333333333334  1.0000
  C   C45       1.0  0.3169  0.49779999999999996  0.6572666666666667  1.0000
  C   C46       1.0  0.3169  0.8191  0.17606666666666668  1.0000
  C   C47       1.0  0.8190999999999999  0.3169  0.4906  1.0000
  C   C48       1.0  0.5022  0.8191  0.3239333333333333  1.0000
  C   C49       1.0  0.4505999999999999  0.2454  0.0694  1.0000
  C   C50       1.0  0.2051999999999999  0.45059999999999995  0.9027333333333334  1.0000
  C   C51       1.0  0.7545999999999999  0.5494000000000001  0.09726666666666667  1.0000
  C   C52       1.0  0.7546  0.20519999999999997  0.7360666666666668  1.0000
  C   C53       1.0  0.2051999999999999  0.7545999999999999  0.9306000000000001  1.0000
  C   C54       1.0  0.5494  0.7545999999999999  0.5694  1.0000
  C   C55       1.0  0.4505999999999999  0.20519999999999997  0.7639333333333334  1.0000
  C   C56       1.0  0.7948  0.5494000000000001  0.40273333333333333  1.0000
  C   C57       1.0  0.2454  0.45059999999999995  0.5972666666666666  1.0000
  C   C58       1.0  0.24540000000000006  0.7948000000000002  0.23606666666666667  1.0000
  C   C59       1.0  0.7948  0.2454  0.4306  1.0000
  C   C60       1.0  0.5494  0.7948000000000002  0.26393333333333335  1.0000
  C   C61       1.0  0.3728999999999999  0.24720000000000003  0.1165  1.0000
  C   C62       1.0  0.12569999999999992  0.37289999999999995  0.9498333333333334  1.0000
  C   C63       1.0  0.7527999999999999  0.6271  0.05016666666666665  1.0000
  C   C64       1.0  0.7527999999999999  0.12569999999999992  0.7831666666666667  1.0000
  C   C65       1.0  0.12569999999999992  0.7527999999999999  0.8835  1.0000
  C   C66       1.0  0.6271  0.7527999999999999  0.6165000000000002  1.0000
  C   C67       1.0  0.3728999999999999  0.12569999999999992  0.7168333333333333  1.0000
  C   C68       1.0  0.8743  0.6271  0.4498333333333333  1.0000
  C   C69       1.0  0.2472  0.37289999999999995  0.5501666666666667  1.0000
  C   C70       1.0  0.2472  0.8743000000000001  0.2831666666666667  1.0000
  C   C71       1.0  0.8743  0.24720000000000003  0.3835  1.0000
  C   C72       1.0  0.6271  0.8743000000000001  0.21683333333333332  1.0000
  C   C73       1.0  0.5276  0.4776000000000001  0.9328  1.0000
  C   C74       1.0  0.049999999999999885  0.5276  0.7661333333333333  1.0000
  C   C75       1.0  0.5224  0.47240000000000004  0.2338666666666667  1.0000
  C   C76       1.0  0.5224  0.04999999999999988  0.5994666666666667  1.0000
  C   C77       1.0  0.049999999999999864  0.5224  0.0672  1.0000
  C   C78       1.0  0.4724  0.5224  0.4328000000000001  1.0000
  C   C79       1.0  0.5276  0.04999999999999988  0.9005333333333334  1.0000
  C   C80       1.0  0.9500000000000001  0.47240000000000004  0.26613333333333333  1.0000
  C   C81       1.0  0.4776  0.5276  0.7338666666666667  1.0000
  C   C82       1.0  0.4776000000000001  0.9500000000000003  0.09946666666666666  1.0000
  C   C83       1.0  0.9500000000000001  0.4776000000000001  0.5672000000000001  1.0000
  C   C84       1.0  0.4724000000000001  0.9500000000000003  0.4005333333333333  1.0000
  H   H1        1.0  0.3778  0.4423000000000001  0.0351  1.0000
  H   H2        1.0  0.9355  0.3778  0.8684333333333334  1.0000
  H   H3        1.0  0.5576999999999999  0.6222  0.13156666666666667  1.0000
  H   H4        1.0  0.5577  0.9355000000000001  0.7017666666666666  1.0000
  H   H5        1.0  0.9355  0.5576999999999999  0.9649  1.0000
  H   H6        1.0  0.6221999999999999  0.5576999999999999  0.5351000000000001  1.0000
  H   H7        1.0  0.3778000000000001  0.9355000000000001  0.7982333333333334  1.0000
  H   H8        1.0  0.06450000000000007  0.6222  0.3684333333333334  1.0000
  H   H9        1.0  0.4423  0.3778  0.6315666666666667  1.0000
  H   H10       1.0  0.4423  0.06450000000000006  0.20176666666666665  1.0000
  H   H11       1.0  0.06450000000000006  0.4423000000000001  0.46490000000000004  1.0000
  H   H12       1.0  0.6221999999999999  0.06450000000000006  0.2982333333333333  1.0000
  H   H13       1.0  0.542  0.316  0.988  1.0000
  H   H14       1.0  0.226  0.542  0.8213333333333334  1.0000
  H   H15       1.0  0.6839999999999999  0.45799999999999996  0.17866666666666667  1.0000
  H   H16       1.0  0.684  0.22600000000000006  0.6546666666666666  1.0000
  H   H17       1.0  0.22600000000000006  0.684  0.012  1.0000
  H   H18       1.0  0.45799999999999996  0.684  0.48800000000000004  1.0000
  H   H19       1.0  0.542  0.22600000000000006  0.8453333333333334  1.0000
  H   H20       1.0  0.774  0.45799999999999996  0.3213333333333333  1.0000
  H   H21       1.0  0.31599999999999995  0.542  0.6786666666666668  1.0000
  H   H22       1.0  0.31599999999999995  0.774  0.15466666666666665  1.0000
  H   H23       1.0  0.774  0.316  0.512  1.0000
  H   H24       1.0  0.4579999999999999  0.774  0.3453333333333333  1.0000
  H   H25       1.0  0.47699999999999987  0.213  0.09  1.0000
  H   H26       1.0  0.2639999999999999  0.4769999999999999  0.9233333333333335  1.0000
  H   H27       1.0  0.787  0.5230000000000001  0.07666666666666666  1.0000
  H   H28       1.0  0.787  0.2639999999999999  0.7566666666666666  1.0000
  H   H29       1.0  0.26399999999999996  0.7870000000000001  0.91  1.0000
  H   H30       1.0  0.5230000000000001  0.7870000000000001  0.59  1.0000
  H   H31       1.0  0.47699999999999987  0.2639999999999999  0.7433333333333335  1.0000
  H   H32       1.0  0.736  0.5230000000000001  0.42333333333333334  1.0000
  H   H33       1.0  0.21299999999999997  0.4769999999999999  0.5766666666666667  1.0000
  H   H34       1.0  0.21299999999999997  0.7360000000000001  0.25666666666666665  1.0000
  H   H35       1.0  0.736  0.213  0.41000000000000003  1.0000
  H   H36       1.0  0.5230000000000001  0.7360000000000001  0.24333333333333335  1.0000
  H   H37       1.0  0.352  0.21100000000000005  0.15600000000000006  1.0000
  H   H38       1.0  0.14099999999999996  0.352  0.9893333333333335  1.0000
  H   H39       1.0  0.7889999999999998  0.648  0.010666666666666632  1.0000
  H   H40       1.0  0.7889999999999998  0.14099999999999996  0.8226666666666667  1.0000
  H   H41       1.0  0.14100000000000001  0.789  0.844  1.0000
  H   H42       1.0  0.648  0.789  0.656  1.0000
  H   H43       1.0  0.352  0.14099999999999996  0.6773333333333335  1.0000
  H   H44       1.0  0.8589999999999999  0.648  0.48933333333333334  1.0000
  H   H45       1.0  0.21100000000000002  0.352  0.5106666666666666  1.0000
  H   H46       1.0  0.21100000000000002  0.859  0.3226666666666667  1.0000
  H   H47       1.0  0.8589999999999999  0.21100000000000005  0.344  1.0000
  H   H48       1.0  0.648  0.859  0.1773333333333333  1.0000
