data_image0
_chemical_formula_structural       Zn4C12H8C16N4O24
_chemical_formula_sum              "Zn4 C28 H8 N4 O24"
_cell_length_a       7.0249
_cell_length_b       7.0249
_cell_length_c       19.936
_cell_angle_alpha    90.0
_cell_angle_beta     90.0
_cell_angle_gamma    90.0

_space_group_name_H-M_alt    "P 1"
_space_group_IT_number       1

loop_
  _space_group_symop_operation_xyz
  'x, y, z'

loop_
  _atom_site_type_symbol
  _atom_site_label
  _atom_site_symmetry_multiplicity
  _atom_site_fract_x
  _atom_site_fract_y
  _atom_site_fract_z
  _atom_site_occupancy
  Zn  Zn1       1.0  0.0  0.0  0.27597  1.0000
  Zn  Zn2       1.0  0.5  0.5  0.7759700000000002  1.0000
  Zn  Zn3       1.0  0.5  0.5  0.22403  1.0000
  Zn  Zn4       1.0  0.0  0.0  0.72403  1.0000
  C   C1        1.0  0.0  0.0  0.0374  1.0000
  C   C2        1.0  0.5  0.5  0.5374  1.0000
  C   C3        1.0  0.5  0.5  0.4626  1.0000
  C   C4        1.0  0.0  0.0  0.9626  1.0000
  C   C5        1.0  0.10129999999999997  0.8622  0.0731  1.0000
  C   C6        1.0  0.6377999999999999  0.6012999999999998  0.5730999999999999  1.0000
  C   C7        1.0  0.8986999999999999  0.13780000000000003  0.0731  1.0000
  C   C8        1.0  0.3622000000000001  0.39869999999999994  0.5730999999999999  1.0000
  C   C9        1.0  0.6012999999999998  0.6377999999999999  0.4269  1.0000
  C   C10       1.0  0.8622  0.10129999999999997  0.9269000000000001  1.0000
  C   C11       1.0  0.39869999999999994  0.3622000000000001  0.4269  1.0000
  C   C12       1.0  0.13780000000000003  0.8986999999999999  0.9269000000000001  1.0000
  H   H1        1.0  0.167  0.7665  0.0507  1.0000
  H   H2        1.0  0.7335  0.667  0.5507000000000001  1.0000
  H   H3        1.0  0.833  0.23350000000000004  0.0507  1.0000
  H   H4        1.0  0.26649999999999996  0.3329999999999999  0.5507000000000001  1.0000
  H   H5        1.0  0.667  0.7335  0.4493  1.0000
  H   H6        1.0  0.7665  0.167  0.9493000000000001  1.0000
  H   H7        1.0  0.3329999999999999  0.26649999999999996  0.4493  1.0000
  H   H8        1.0  0.23350000000000004  0.833  0.9493000000000001  1.0000
  C   C13       1.0  0.1022  0.8704999999999999  0.1426  1.0000
  C   C14       1.0  0.6295000000000001  0.6021999999999998  0.6426000000000001  1.0000
  C   C15       1.0  0.8977999999999999  0.12950000000000006  0.1426  1.0000
  C   C16       1.0  0.3704999999999998  0.39779999999999993  0.6426000000000001  1.0000
  C   C17       1.0  0.6021999999999998  0.6295000000000001  0.3574  1.0000
  C   C18       1.0  0.8704999999999999  0.1022  0.8573999999999999  1.0000
  C   C19       1.0  0.39779999999999993  0.3704999999999998  0.3574  1.0000
  C   C20       1.0  0.12950000000000006  0.8977999999999999  0.8573999999999999  1.0000
  C   C21       1.0  0.219  0.7447  0.1881  1.0000
  C   C22       1.0  0.7553  0.7189999999999999  0.6880999999999999  1.0000
  C   C23       1.0  0.7809999999999999  0.25529999999999997  0.1881  1.0000
  C   C24       1.0  0.24469999999999992  0.281  0.6880999999999999  1.0000
  C   C25       1.0  0.7189999999999999  0.7553  0.3119  1.0000
  C   C26       1.0  0.7447  0.219  0.8119000000000001  1.0000
  C   C27       1.0  0.281  0.24469999999999992  0.3119  1.0000
  C   C28       1.0  0.25529999999999997  0.7809999999999999  0.8119000000000001  1.0000
  N   N1        1.0  0.0  0.0  0.1752  1.0000
  N   N2        1.0  0.5  0.5  0.6752  1.0000
  N   N3        1.0  0.5  0.5  0.3248  1.0000
  N   N4        1.0  0.0  0.0  0.8247999999999999  1.0000
  O   O1        1.0  0.3360999999999999  0.6346  0.16035  1.0000
  O   O2        1.0  0.8654  0.8361  0.66035  1.0000
  O   O3        1.0  0.6639  0.36539999999999995  0.16035  1.0000
  O   O4        1.0  0.13460000000000005  0.16390000000000002  0.66035  1.0000
  O   O5        1.0  0.8361  0.8654  0.33965  1.0000
  O   O6        1.0  0.6346  0.3360999999999999  0.8396500000000001  1.0000
  O   O7        1.0  0.16390000000000002  0.13460000000000005  0.33965  1.0000
  O   O8        1.0  0.36539999999999995  0.6639  0.8396500000000001  1.0000
  O   O9        1.0  0.1942  0.7641  0.24955  1.0000
  O   O10       1.0  0.7358999999999999  0.6942  0.7495499999999999  1.0000
  O   O11       1.0  0.8058  0.2359  0.24955  1.0000
  O   O12       1.0  0.2641  0.3057999999999999  0.7495499999999999  1.0000
  O   O13       1.0  0.6942  0.7358999999999999  0.25045  1.0000
  O   O14       1.0  0.7641  0.1942  0.7504500000000001  1.0000
  O   O15       1.0  0.3057999999999999  0.2641  0.25045  1.0000
  O   O16       1.0  0.2359  0.8058  0.7504500000000001  1.0000
  O   O17       1.0  0.4472  0.2002  0.0365  1.0000
  O   O18       1.0  0.2998  0.9471999999999999  0.5365  1.0000
  O   O19       1.0  0.5528  0.7998000000000001  0.0365  1.0000
  O   O20       1.0  0.7001999999999999  0.052800000000000014  0.5365  1.0000
  O   O21       1.0  0.9471999999999999  0.2998  0.4635000000000001  1.0000
  O   O22       1.0  0.2002  0.4472  0.9635  1.0000
  O   O23       1.0  0.052800000000000014  0.7001999999999999  0.4635000000000001  1.0000
  O   O24       1.0  0.7998000000000001  0.5528  0.9635  1.0000
