
#======================================================================
# CRYSTAL DATA
#----------------------------------------------------------------------
data_VESTA_phase_1

_chemical_name_common                  'H12 N4 O10 P4'
_cell_length_a                         13.995(8)
_cell_length_b                         8.334(4)
_cell_length_c                         5.064(3)
_cell_angle_alpha                      90.000000
_cell_angle_beta                       90.000000
_cell_angle_gamma                      90.000000
_cell_volume                           590.636231
_space_group_name_H-M_alt              'P 21 21 2'
_space_group_IT_number                 18

loop_
_space_group_symop_operation_xyz
   'x, y, z'
   '-x, -y, z'
   '-x+1/2, y+1/2, -z'
   'x+1/2, -y+1/2, -z'

loop_
   _atom_site_label
   _atom_site_occupancy
   _atom_site_fract_x
   _atom_site_fract_y
   _atom_site_fract_z
   _atom_site_adp_type
   _atom_site_B_iso_or_equiv
   _atom_site_type_symbol
   P1         1.0     0.12510(10)  0.11650(10)  0.10350(10) Bani  0.897476 P
   P2         1.0     0.06900(10) -0.21070(10) -0.06230(10) Bani  0.918531 P
   N1         1.0     0.0165(2)    0.1910(4)    0.1601(5)   Bani  1.076445 N
   N2         1.0     0.1137(2)   -0.0285(4)   -0.1188(4)   Bani  1.097500 N
   O1         1.0     0.18410(10)  0.2469(2)   -0.0299(5)   Bani  1.465965 O
   O2         1.0     0.1623(2)    0.0546(4)    0.3587(4)   Bani  1.623879 O
   O3         1.0     0.14440(10) -0.3140(4)    0.0757(5)   Bani  1.647566 O
   O4         1.0     0.0318(2)   -0.2761(4)   -0.3165(4)   Bani  1.571241 O
   O5         1.0     0.3483(4)   -0.0389(4)    0.4801(7)   Bani  2.684532 O
   H1         1.0     0.007(3)     0.206(5)     0.283(8)    Biso  0.020000 H
   H2         1.0     0.117(2)     0.001(4)    -0.318(7)    Biso  0.007000 H
   H3         1.0     0.230000    -0.284000     0.053000    Biso  0.054000 H
   H4         1.0     0.360(6)    -0.123(10)    0.25(2)     Biso  0.126000 H
   H5         1.0     0.280(3)    -0.010(4)     0.426(8)    Biso  0.019000 H
   H6         1.0     0.418(4)     0.015(7)     0.467(11)   Biso  0.048000 H

loop_
   _atom_site_aniso_label
   _atom_site_aniso_U_11
   _atom_site_aniso_U_22
   _atom_site_aniso_U_33
   _atom_site_aniso_U_12
   _atom_site_aniso_U_13
   _atom_site_aniso_U_23
   P1	 0.00770  0.01560  0.01080 -0.00040 -0.00040  0.00020
   P2	 0.00940  0.01360  0.01190  0.00080  0.00140  0.00160
   N1	 0.00860  0.02110  0.01120  0.00070 -0.00010 -0.00420
   N2	 0.01410  0.01540  0.01220 -0.00120  0.00220 -0.00090
   O1	 0.01190  0.01870  0.02510 -0.00400  0.00160  0.00300
   O2	 0.01670  0.03470  0.01030  0.00280 -0.00220  0.00210
   O3	 0.01080  0.02100  0.03080  0.00280  0.00130  0.01060
   O4	 0.02420  0.02030  0.01520 -0.00210 -0.00050 -0.00250
   O5	 0.03760  0.02800  0.03640  0.00200 -0.00170 -0.00160
