
#======================================================================
# CRYSTAL DATA
#----------------------------------------------------------------------
data_VESTA_phase_1

_chemical_name_common                  'C8 H24 P4 S8 Th'
_cell_length_a                         10.3860(10)
_cell_length_b                         10.3860(10)
_cell_length_c                         11.742(2)
_cell_angle_alpha                      90.000000
_cell_angle_beta                       90.000000
_cell_angle_gamma                      90.000000
_cell_volume                           1266.597633
_space_group_name_H-M_alt              'P 42 21 2'
_space_group_IT_number                 94

loop_
_space_group_symop_operation_xyz
   'x, y, z'
   '-x, -y, z'
   '-y+1/2, x+1/2, z+1/2'
   'y+1/2, -x+1/2, z+1/2'
   '-x+1/2, y+1/2, -z+1/2'
   'x+1/2, -y+1/2, -z+1/2'
   'y, x, -z'
   '-y, -x, -z'

loop_
   _atom_site_label
   _atom_site_occupancy
   _atom_site_fract_x
   _atom_site_fract_y
   _atom_site_fract_z
   _atom_site_adp_type
   _atom_site_U_iso_or_equiv
   _atom_site_type_symbol
   Th         1.0     0.000000     0.000000     0.000000    Uiso  ? Th
   S(1)       1.0    -0.08773(3)   0.24137(3)   0.09911(3)  Uiso  ? S
   S(2)       1.0     0.18500(3)   0.09411(3)   0.16248(3)  Uiso  ? S
   C(1)       1.0     0.1746(2)    0.3891(2)    0.1192(2)   Uiso  ? C
   C(2)       1.0     0.0572(2)    0.2963(2)    0.32660(10) Uiso  ? C
   P          1.0     0.08302(3)   0.25788(3)   0.17861(3)  Uiso  ? P
   H(1)       1.0     0.185(2)     0.373(2)     0.056(3)    Uiso  ? H
   H(2)       1.0     0.247(4)     0.389(2)     0.151(2)    Uiso  ? H
   H(3)       1.0     0.135(3)     0.464(4)     0.127(2)    Uiso  ? H
   H(4)       1.0     0.020(4)     0.229(4)     0.356(3)    Uiso  ? H
   H(5)       1.0     0.131(4)     0.311(3)     0.358(3)    Uiso  ? H
   H(6)       1.0     0.005(4)     0.359(4)     0.337(2)    Uiso  ? H
