
#======================================================================
# CRYSTAL DATA
#----------------------------------------------------------------------
data_VESTA_phase_1

_chemical_name_common                  'N5 P3'
_cell_length_a                         8.12077(4)
_cell_length_b                         5.83433(4)
_cell_length_c                         9.16005(5)
_cell_angle_alpha                      90.000000
_cell_angle_beta                       115.8090(10)
_cell_angle_gamma                      90.000000
_cell_volume                           390.705406
_space_group_name_H-M_alt              'C c'
_space_group_IT_number                 9

loop_
_space_group_symop_operation_xyz
   'x, y, z'
   'x, -y, z+1/2'
   'x+1/2, y+1/2, z'
   'x+1/2, -y+1/2, z+1/2'

loop_
   _atom_site_label
   _atom_site_occupancy
   _atom_site_fract_x
   _atom_site_fract_y
   _atom_site_fract_z
   _atom_site_adp_type
   _atom_site_U_iso_or_equiv
   _atom_site_type_symbol
   P(1)       1.0     0.000000     0.5182(4)    0.000000    Uiso 36.000000 P
   P(2)       1.0     0.1360(10)   0.2000(8)    0.3090(10)  Uiso 36.000000 P
   P(3)       1.0     0.365(2)     0.2924(8)    0.1960(10)  Uiso 36.000000 P
   N(1)       1.0     0.009(2)    -0.003(2)     0.2690(10)  Uiso 17.000000 N
   N(2)       1.0     0.1290(10)   0.3410(10)   0.4500(10)  Uiso 17.000000 N
   N(3)       1.0     0.3700(10)   0.1190(10)   0.0660(10)  Uiso 17.000000 N
   N(4)       1.0     0.142(2)     0.351(2)     0.1470(10)  Uiso 17.000000 N
   N(5)       1.0     0.356(2)     0.135(2)     0.3480(10)  Uiso 17.000000 N
