
#======================================================================
# CRYSTAL DATA
#----------------------------------------------------------------------
data_VESTA_phase_1

_chemical_name_common                  'Sb1'
_cell_length_a                         5.560000
_cell_length_b                         4.040000
_cell_length_c                         4.220(10)
_cell_angle_alpha                      90.000000
_cell_angle_beta                       86.000000
_cell_angle_gamma                      90.000000
_cell_volume                           94.560415
_space_group_name_H-M_alt              'P 21/m'
_space_group_IT_number                 11

loop_
_space_group_symop_operation_xyz
   'x, y, z'
   '-x, -y, -z'
   '-x, y+1/2, -z'
   'x, -y+1/2, z'

loop_
   _atom_site_label
   _atom_site_occupancy
   _atom_site_fract_x
   _atom_site_fract_y
   _atom_site_fract_z
   _atom_site_adp_type
   _atom_site_B_iso_or_equiv
   _atom_site_type_symbol
   Sb1        1.0     0.740000     0.250000     0.080000    Biso  ? Sb
   Sb2        1.0     0.340000     0.250000     0.400000    Biso  ? Sb
