
#======================================================================
# CRYSTAL DATA
#----------------------------------------------------------------------
data_VESTA_phase_1

_chemical_name_common                  'Mo O4 Pb'
_cell_length_a                         5.470000
_cell_length_b                         5.470000
_cell_length_c                         12.080000
_cell_angle_alpha                      90.000000
_cell_angle_beta                       90.000000
_cell_angle_gamma                      90.000000
_cell_volume                           361.444442
_space_group_name_H-M_alt              'I 41/a'
_space_group_IT_number                 88

loop_
_space_group_symop_operation_xyz
   'x, y, z'
   '-x+1/2, -y+1/2, z+1/2'
   '-y, x+1/2, z+1/4'
   'y+1/2, -x, z+3/4'
   '-x, -y+1/2, -z+1/4'
   'x+1/2, y, -z+3/4'
   'y, -x, -z'
   '-y+1/2, x+1/2, -z+1/2'
   'x+1/2, y+1/2, z+1/2'
   '-x, -y, z'
   '-y+1/2, x, z+3/4'
   'y, -x+1/2, z+1/4'
   '-x+1/2, -y, -z+3/4'
   'x, y+1/2, -z+1/4'
   'y+1/2, -x+1/2, -z+1/2'
   '-y, x, -z'

loop_
   _atom_site_label
   _atom_site_occupancy
   _atom_site_fract_x
   _atom_site_fract_y
   _atom_site_fract_z
   _atom_site_adp_type
   _atom_site_U_iso_or_equiv
   _atom_site_type_symbol
   Pb1        1.0     0.000000     0.000000     0.500000    Uiso  ? Pb
   Mo1        1.0     0.000000     0.000000     0.000000    Uiso  ? Mo
   O1         1.0    -1.000000    -1.000000    -1.000000    Uiso  ? O
