
#======================================================================
# CRYSTAL DATA
#----------------------------------------------------------------------
data_VESTA_phase_1

_chemical_name_common                  'Cl2 S2'
_cell_length_a                         17.276(3)
_cell_length_b                         21.370(4)
_cell_length_c                         4.7616(7)
_cell_angle_alpha                      90.000000
_cell_angle_beta                       90.000000
_cell_angle_gamma                      90.000000
_cell_volume                           1757.926133
_space_group_name_H-M_alt              'F d d 2'
_space_group_IT_number                 43

loop_
_space_group_symop_operation_xyz
   'x, y, z'
   '-x, -y, z'
   'x+1/4, -y+1/4, z+1/4'
   '-x+1/4, y+1/4, z+1/4'
   'x, y+1/2, z+1/2'
   '-x, -y+1/2, z+1/2'
   'x+1/4, -y+3/4, z+3/4'
   '-x+1/4, y+3/4, z+3/4'
   'x+1/2, y, z+1/2'
   '-x+1/2, -y, z+1/2'
   'x+3/4, -y+1/4, z+3/4'
   '-x+3/4, y+1/4, z+3/4'
   'x+1/2, y+1/2, z'
   '-x+1/2, -y+1/2, z'
   'x+3/4, -y+3/4, z+1/4'
   '-x+3/4, y+3/4, z+1/4'

loop_
   _atom_site_label
   _atom_site_occupancy
   _atom_site_fract_x
   _atom_site_fract_y
   _atom_site_fract_z
   _atom_site_adp_type
   _atom_site_B_iso_or_equiv
   _atom_site_type_symbol
   S1         1.0     0.17602(3)   0.43251(2)   0.000000    Bani 2398.297363 S
   S2         1.0     0.26692(2)   0.40691(2)   0.2108(2)   Bani 2098.843018 S
   Cl1        1.0     0.11734(3)   0.49698(2)   0.2436(2)   Bani 2522.411377 Cl
   Cl2        1.0     0.23174(3)   0.33561(2)   0.4781(2)   Bani 2613.651367 Cl

loop_
   _atom_site_aniso_label
   _atom_site_aniso_U_11
   _atom_site_aniso_U_22
   _atom_site_aniso_U_33
   _atom_site_aniso_U_12
   _atom_site_aniso_U_13
   _atom_site_aniso_U_23
   S1	36.13720 52.51764  2.46953  5.61099  0.25004  0.15465
   S2	23.73867 52.28628  3.72153 -1.12220  0.20837 -1.03100
   Cl1	39.16124 52.98035  3.69855 11.78307  1.12520 -0.77325
   Cl2	43.99969 52.28628  3.02087  7.66835 -1.16688  0.36085
