
#======================================================================
# CRYSTAL DATA
#----------------------------------------------------------------------
data_VESTA_phase_1

_chemical_name_common                  'C2 Eu4 F5 N4'
_cell_length_a                         16.0530(10)
_cell_length_b                         16.0530(10)
_cell_length_c                         6.5150(7)
_cell_angle_alpha                      90.000000
_cell_angle_beta                       90.000000
_cell_angle_gamma                      90.000000
_cell_volume                           1678.907601
_space_group_name_H-M_alt              'P -4 21 c'
_space_group_IT_number                 114

loop_
_space_group_symop_operation_xyz
   'x, y, z'
   '-x, -y, z'
   'y, -x, -z'
   '-y, x, -z'
   '-x+1/2, y+1/2, -z+1/2'
   'x+1/2, -y+1/2, -z+1/2'
   '-y+1/2, -x+1/2, z+1/2'
   'y+1/2, x+1/2, z+1/2'

loop_
   _atom_site_label
   _atom_site_occupancy
   _atom_site_fract_x
   _atom_site_fract_y
   _atom_site_fract_z
   _atom_site_adp_type
   _atom_site_U_iso_or_equiv
   _atom_site_type_symbol
   Eu1        1.0     0.41361(2)   0.16533(2)   0.00900(6)  Uani  0.009217 Eu
   Eu2        1.0     0.66831(2)   0.08040(2)   0.01726(6)  Uani  0.010333 Eu
   Eu3        1.0     0.41997(2)   0.33283(2)   0.51144(6)  Uani  0.010800 Eu
   Eu4        1.0     0.32658(3)   0.42200(3)  -0.00431(6)  Uani  0.011670 Eu
   F1         1.0     0.2448(2)    0.5040(2)   -0.2521(4)   Uani  0.013633 F
   F2         1.0     0.3166(4)    0.4302(4)    0.3702(5)   Uani  0.014233 F
   F3         1.0     0.3166(4)    0.0674(4)    0.1344(5)   Uani  0.014000 F
   F4         1.0     0.5545(2)    0.1719(2)   -0.0970(7)   Uani  0.015367 F
   F5         1.0     0.4243(4)    0.3078(4)   -0.0936(5)   Uani  0.016967 F
   C1         1.0     0.500000     0.000000     0.2913(18)  Uani  0.020000 C
   C2         1.0     0.2512(4)    0.2450(4)    0.2711(18)  Uani  0.008333 C
   C3         1.0     0.500000     0.500000    -0.2636(17)  Uani  0.023000 C
   N1         1.0     0.2361(4)    0.3210(5)   -0.2396(10)  Uani  0.024000 N
   N2         1.0     0.4254(5)    0.4885(4)   -0.2626(8)   Uani  0.023333 N
   N3         1.0     0.4764(4)    0.0726(4)    0.2886(10)  Uani  0.020667 N
   N4         1.0     0.3247(4)    0.2249(4)    0.2950(9)   Uani  0.021000 N

loop_
   _atom_site_aniso_label
   _atom_site_aniso_U_11
   _atom_site_aniso_U_22
   _atom_site_aniso_U_33
   _atom_site_aniso_U_12
   _atom_site_aniso_U_13
   _atom_site_aniso_U_23
   Eu1	 0.00926  0.00889  0.00950  0.00031 -0.00057 -0.00003
   Eu2	 0.01050  0.00997  0.01053  0.00050 -0.00104  0.00093
   Eu3	 0.01161  0.01000  0.01079  0.00075 -0.00176  0.00094
   Eu4	 0.01310  0.01130  0.01061  0.00149  0.00223 -0.00119
   F1	 0.01000  0.02700  0.00390  0.00000  0.00000  0.00160
   F2	 0.01490  0.01700  0.01080  0.00120 -0.00150  0.00190
   F3	 0.01340  0.01560  0.01300 -0.00220 -0.00180  0.00030
   F4	 0.01600  0.01700  0.01310  0.00330 -0.00310 -0.00210
   F5	 0.01900  0.01800  0.01390  0.00250 -0.00190 -0.00460
   C1	 0.01900  0.02900  0.01200 -0.00700  0.00000  0.00000
   C2	 0.00700  0.01300  0.00500  0.00020  0.00090  0.00100
   C3	 0.04000  0.02200  0.00700  0.00500  0.00000  0.00000
   N1	 0.03300  0.01700  0.02200 -0.00400 -0.00900  0.00200
   N2	 0.00800  0.04000  0.02200  0.00200  0.00000  0.01100
   N3	 0.02700  0.00900  0.02600  0.00300 -0.01200 -0.00200
   N4	 0.02000  0.02300  0.02000 -0.00500  0.00000 -0.00200
