
#======================================================================
# CRYSTAL DATA
#----------------------------------------------------------------------
data_VESTA_phase_1

_chemical_name_common                  'C1'
_cell_length_a                         3.580900
_cell_length_b                         3.580900
_cell_length_c                         3.580900
_cell_angle_alpha                      90.000000
_cell_angle_beta                       90.000000
_cell_angle_gamma                      90.000000
_cell_volume                           45.917323
_space_group_name_H-M_alt              'R 3'
_space_group_IT_number                 146

loop_
_space_group_symop_operation_xyz
   'x, y, z'
   'z, x, y'
   'y, z, x'

loop_
   _atom_site_label
   _atom_site_occupancy
   _atom_site_fract_x
   _atom_site_fract_y
   _atom_site_fract_z
   _atom_site_adp_type
   _atom_site_B_iso_or_equiv
   _atom_site_type_symbol
   C1         1.0     0.000000     0.000000     0.000000    Biso  ? C
   C2         1.0     0.500000     0.500000     0.000000    Biso  ? C
   C3         1.0     0.355000     0.355000     0.355000    Biso  ? C
   C4         1.0     0.855000     0.855000     0.355000    Biso  ? C
