data_image0
_chemical_formula_structural       C4H8C4H8C4H8Cl4N4H12N4H12O16H4O4H8
_chemical_formula_sum              "C12 H60 Cl4 N8 O20"
_cell_length_a       6.9398
_cell_length_b       16.634
_cell_length_c       7.8543
_cell_angle_alpha    90.0
_cell_angle_beta     113.731
_cell_angle_gamma    90.0

_space_group_name_H-M_alt    "P 1"
_space_group_IT_number       1

loop_
  _space_group_symop_operation_xyz
  'x, y, z'

loop_
  _atom_site_type_symbol
  _atom_site_label
  _atom_site_symmetry_multiplicity
  _atom_site_fract_x
  _atom_site_fract_y
  _atom_site_fract_z
  _atom_site_occupancy
  C   C1        1.0  0.7621000000000001  0.8875  0.8419000000000002  1.0000
  C   C2        1.0  0.23790000000000003  0.38749999999999996  0.6581  1.0000
  C   C3        1.0  0.23789999999999992  0.11250000000000004  0.15809999999999994  1.0000
  C   C4        1.0  0.7621000000000001  0.6125  0.34190000000000015  1.0000
  H   H1        1.0  0.6608000000000002  0.9275  0.7611000000000002  1.0000
  H   H2        1.0  0.33919999999999995  0.4275  0.7389  1.0000
  H   H3        1.0  0.3391999999999999  0.07250000000000001  0.23889999999999992  1.0000
  H   H4        1.0  0.6608000000000002  0.5725  0.26110000000000017  1.0000
  H   H5        1.0  0.9060000000000002  0.9066  0.8667000000000002  1.0000
  H   H6        1.0  0.09399999999999988  0.4066000000000001  0.6332999999999999  1.0000
  H   H7        1.0  0.09399999999999989  0.09340000000000004  0.1332999999999999  1.0000
  H   H8        1.0  0.9060000000000002  0.5934  0.3667000000000003  1.0000
  C   C5        1.0  0.7358  0.8803  0.02439999999999998  1.0000
  C   C6        1.0  0.26420000000000005  0.3803000000000001  0.4756000000000001  1.0000
  C   C7        1.0  0.26420000000000005  0.11970000000000003  0.9756000000000001  1.0000
  C   C8        1.0  0.7358  0.6197  0.5244  1.0000
  H   H9        1.0  0.5901000000000003  0.8633  0.9989000000000001  1.0000
  H   H10       1.0  0.4098999999999998  0.36329999999999996  0.5010999999999999  1.0000
  H   H11       1.0  0.4098999999999998  0.13670000000000004  0.001099999999999879  1.0000
  H   H12       1.0  0.5901000000000003  0.6367  0.4989000000000002  1.0000
  H   H13       1.0  0.8328000000000003  0.8386  0.10280000000000024  1.0000
  H   H14       1.0  0.16719999999999982  0.3386  0.3971999999999998  1.0000
  H   H15       1.0  0.16719999999999985  0.1614  0.8971999999999999  1.0000
  H   H16       1.0  0.8328000000000004  0.6614  0.6028000000000003  1.0000
  C   C9        1.0  0.7816000000000003  0.9596  0.12860000000000008  1.0000
  C   C10       1.0  0.21839999999999996  0.4596  0.3714  1.0000
  C   C11       1.0  0.21839999999999998  0.04039999999999999  0.8714000000000001  1.0000
  C   C12       1.0  0.7816000000000002  0.5404  0.6286  1.0000
  H   H17       1.0  0.9315000000000002  0.9741  0.16620000000000013  1.0000
  H   H18       1.0  0.0684999999999998  0.47409999999999997  0.33379999999999993  1.0000
  H   H19       1.0  0.06849999999999978  0.025900000000000034  0.8337999999999999  1.0000
  H   H20       1.0  0.9315000000000002  0.5259  0.6662000000000001  1.0000
  H   H21       1.0  0.6943000000000003  0.0026999999999999247  0.046699999999999964  1.0000
  H   H22       1.0  0.30569999999999986  0.5026999999999999  0.4533000000000001  1.0000
  H   H23       1.0  0.3056999999999999  0.9973000000000001  0.9533000000000001  1.0000
  H   H24       1.0  0.6943000000000003  0.4973  0.5467  1.0000
  Cl  Cl1       1.0  0.15919000000000003  0.8280399999999998  0.59155  1.0000
  Cl  Cl2       1.0  0.8408100000000001  0.3280399999999999  0.90845  1.0000
  Cl  Cl3       1.0  0.8408100000000001  0.1719600000000001  0.40845000000000004  1.0000
  Cl  Cl4       1.0  0.15919000000000005  0.6719600000000001  0.09155000000000003  1.0000
  N   N1        1.0  0.7254  0.80815  0.7442  1.0000
  N   N2        1.0  0.2746  0.3081499999999999  0.7558000000000001  1.0000
  N   N3        1.0  0.27459999999999996  0.19184999999999994  0.2558  1.0000
  N   N4        1.0  0.7254  0.69185  0.2442  1.0000
  H   H25       1.0  0.7907000000000001  0.7687  0.8279000000000002  1.0000
  H   H26       1.0  0.2093  0.26869999999999994  0.6721  1.0000
  H   H27       1.0  0.20929999999999999  0.23129999999999995  0.17209999999999995  1.0000
  H   H28       1.0  0.7907000000000001  0.7313  0.3279000000000001  1.0000
  H   H29       1.0  0.7784  0.8095  0.6555  1.0000
  H   H30       1.0  0.22160000000000007  0.3094999999999999  0.8445000000000001  1.0000
  H   H31       1.0  0.22160000000000005  0.1905  0.34450000000000003  1.0000
  H   H32       1.0  0.7784  0.6905  0.1555  1.0000
  H   H33       1.0  0.5847000000000002  0.798  0.6899000000000002  0.3300
  H   H34       1.0  0.41529999999999984  0.29800000000000004  0.8101  0.3300
  H   H35       1.0  0.4152999999999998  0.20199999999999993  0.31009999999999993  0.3300
  H   H36       1.0  0.5847000000000002  0.702  0.18990000000000018  0.3300
  N   N5        1.0  0.7336000000000003  0.95226  0.2964  1.0000
  N   N6        1.0  0.26639999999999986  0.4522599999999999  0.20360000000000003  1.0000
  N   N7        1.0  0.2663999999999999  0.047740000000000005  0.7036  1.0000
  N   N8        1.0  0.7336000000000003  0.54774  0.7964  1.0000
  H   H37       1.0  0.7478  0.001100000000000101  0.3522000000000001  1.0000
  H   H38       1.0  0.2522  0.5011000000000001  0.14779999999999996  1.0000
  H   H39       1.0  0.2522  0.9988999999999999  0.6477999999999999  1.0000
  H   H40       1.0  0.7478  0.4988999999999999  0.8522000000000001  1.0000
  H   H41       1.0  0.8243000000000004  0.9167  0.37730000000000025  1.0000
  H   H42       1.0  0.17569999999999988  0.41670000000000007  0.12269999999999981  1.0000
  H   H43       1.0  0.17569999999999988  0.08330000000000004  0.6226999999999998  1.0000
  H   H44       1.0  0.8243000000000001  0.5833  0.8773000000000002  1.0000
  H   H45       1.0  0.5992000000000002  0.9344  0.2622  0.3300
  H   H46       1.0  0.4008  0.4344000000000001  0.23780000000000004  0.3300
  H   H47       1.0  0.4008  0.06559999999999999  0.7378  0.3300
  H   H48       1.0  0.5992000000000002  0.5656  0.7622  0.3300
  O   O1        1.0  0.9245000000000001  0.80903  0.5002  1.0000
  O   O2        1.0  0.07550000000000003  0.3090299999999999  0.9998  1.0000
  O   O3        1.0  0.07550000000000005  0.19096999999999997  0.4998000000000001  1.0000
  O   O4        1.0  0.9245000000000001  0.69097  0.00019999999999997797  1.0000
  O   O5        1.0  0.2085000000000001  0.90567  0.5177000000000002  1.0000
  O   O6        1.0  0.7915  0.40567  0.9823  1.0000
  O   O7        1.0  0.7915  0.09433000000000002  0.4822999999999999  1.0000
  O   O8        1.0  0.2085000000000001  0.59433  0.017700000000000052  1.0000
  O   O9        1.0  0.2943000000000001  0.7584  0.5763  1.0000
  O   O10       1.0  0.7057  0.25839999999999996  0.9237000000000001  1.0000
  O   O11       1.0  0.7057  0.24160000000000004  0.42369999999999997  1.0000
  O   O12       1.0  0.2943000000000001  0.7415999999999999  0.07630000000000005  1.0000
  O   O13       1.0  0.2160000000000001  0.84463  0.8051000000000003  1.0000
  O   O14       1.0  0.784  0.34463  0.6949  1.0000
  O   O15       1.0  0.784  0.15537  0.19489999999999988  1.0000
  O   O16       1.0  0.21600000000000008  0.65537  0.30510000000000015  1.0000
  H   H49       1.0  0.23080000000000014  0.8008  0.8647000000000002  0.3300
  H   H50       1.0  0.7691999999999999  0.30079999999999996  0.6353  0.3300
  H   H51       1.0  0.7691999999999999  0.19920000000000004  0.13529999999999986  0.3300
  H   H52       1.0  0.23080000000000012  0.6992  0.3647000000000001  0.3300
  O   O17       1.0  0.3302  0.89758  0.23130000000000006  1.0000
  O   O18       1.0  0.6698  0.39758000000000004  0.26869999999999994  1.0000
  O   O19       1.0  0.6698  0.10241999999999994  0.7687  1.0000
  O   O20       1.0  0.3302  0.60242  0.7313000000000002  1.0000
  H   H53       1.0  0.2957  0.9018  0.3226000000000001  1.0000
  H   H54       1.0  0.7043  0.40180000000000016  0.17739999999999995  1.0000
  H   H55       1.0  0.7043000000000001  0.09819999999999995  0.6774000000000001  1.0000
  H   H56       1.0  0.29570000000000013  0.5982  0.8226000000000001  1.0000
  H   H57       1.0  0.3135  0.8517  0.187  1.0000
  H   H58       1.0  0.6865  0.35170000000000007  0.313  1.0000
  H   H59       1.0  0.6865  0.1483  0.8130000000000001  1.0000
  H   H60       1.0  0.3135  0.6483  0.6870000000000002  1.0000
