
#======================================================================
# CRYSTAL DATA
#----------------------------------------------------------------------
data_VESTA_phase_1

_chemical_name_common                  'I1 Se8 Ta2'
_cell_length_a                         9.5310(10)
_cell_length_b                         9.5310(10)
_cell_length_c                         12.824(6)
_cell_angle_alpha                      90.000000
_cell_angle_beta                       90.000000
_cell_angle_gamma                      90.000000
_cell_volume                           1164.931726
_space_group_name_H-M_alt              'I 4 2 2'
_space_group_IT_number                 97

loop_
_space_group_symop_operation_xyz
   'x, y, z'
   '-x, -y, z'
   '-y, x, z'
   'y, -x, z'
   '-x, y, -z'
   'x, -y, -z'
   'y, x, -z'
   '-y, -x, -z'
   'x+1/2, y+1/2, z+1/2'
   '-x+1/2, -y+1/2, z+1/2'
   '-y+1/2, x+1/2, z+1/2'
   'y+1/2, -x+1/2, z+1/2'
   '-x+1/2, y+1/2, -z+1/2'
   'x+1/2, -y+1/2, -z+1/2'
   'y+1/2, x+1/2, -z+1/2'
   '-y+1/2, -x+1/2, -z+1/2'

loop_
   _atom_site_label
   _atom_site_occupancy
   _atom_site_fract_x
   _atom_site_fract_y
   _atom_site_fract_z
   _atom_site_adp_type
   _atom_site_B_iso_or_equiv
   _atom_site_type_symbol
   Ta1        1.0     0.000000     0.500000     0.000000    Bani  1.036966 Ta
   Ta2        1.0     0.000000     0.500000     0.250000    Bani  1.247518 Ta
   I1         1.0     0.000000     0.000000     0.1553(4)   Bani  3.105635 I
   Se1        1.0     0.1212(2)    0.3120(2)    0.8809(2)   Bani  1.371217 Se
   Se2        1.0     0.2160(2)    0.5449(2)    0.8693(2)   Bani  1.402800 Se

loop_
   _atom_site_aniso_label
   _atom_site_aniso_U_11
   _atom_site_aniso_U_22
   _atom_site_aniso_U_33
   _atom_site_aniso_U_12
   _atom_site_aniso_U_13
   _atom_site_aniso_U_23
   Ta1	 0.00780  0.01120  0.02040  0.00000  0.00000  0.00000
   Ta2	 0.01500  0.01500  0.01740  0.00000  0.00000  0.00000
   I1	 0.03600  0.03600  0.04600  0.00000  0.00000  0.00000
   Se1	 0.01620  0.01660  0.01930  0.00110 -0.00150 -0.00100
   Se2	 0.01520  0.01890  0.01920 -0.00090  0.00050 -0.00150
