
#======================================================================
# CRYSTAL DATA
#----------------------------------------------------------------------
data_VESTA_phase_1

_chemical_name_common                  'C60'
_cell_length_a                         14.745(2)
_cell_length_b                         9.843(2)
_cell_length_c                         9.0920(10)
_cell_angle_alpha                      90.000000
_cell_angle_beta                       90.000000
_cell_angle_gamma                      90.000000
_cell_volume                           1319.567784
_space_group_name_H-M_alt              'P n n m'
_space_group_IT_number                 58

loop_
_space_group_symop_operation_xyz
   'x, y, z'
   '-x, -y, -z'
   '-x, -y, z'
   'x, y, -z'
   '-x+1/2, y+1/2, -z+1/2'
   'x+1/2, -y+1/2, z+1/2'
   'x+1/2, -y+1/2, -z+1/2'
   '-x+1/2, y+1/2, z+1/2'

loop_
   _atom_site_label
   _atom_site_occupancy
   _atom_site_fract_x
   _atom_site_fract_y
   _atom_site_fract_z
   _atom_site_adp_type
   _atom_site_B_iso_or_equiv
   _atom_site_type_symbol
   C1         1.0     0.227600     0.884700     0.000000    Biso  2.420000 C
   C2         1.0     0.117800     0.305600     0.0850(10)  Biso  2.420000 C
   C3         1.0     0.040800    -0.035300     0.4090(10)  Biso  2.420000 C
   C4         1.0     0.223400     0.110300     0.0780(10)  Biso  2.420000 C
   C5         1.0     0.120800     0.166400     0.2880(10)  Biso  2.420000 C
   C6         1.0     0.176500     0.321800     0.2540(10)  Biso  2.420000 C
   C7         1.0     0.226000    -0.029300     0.1320(10)  Biso  2.420000 C
   C8         1.0     0.171300     0.207300     0.1570(10)  Biso  2.420000 C
   C9         1.0     0.122800     0.030700     0.3290(10)  Biso  2.420000 C
   C10        1.0     0.819500     0.237600     0.000000    Biso  2.420000 C
   C11        1.0    -0.047900     0.344900     0.0810(10)  Biso  2.420000 C
   C12        1.0     0.035800     0.239900     0.2830(10)  Biso  2.420000 C
   C13        1.0     0.872500     0.195000     0.2650(10)  Biso  2.420000 C
   C14        1.0     0.870100     0.278500     0.1330(10)  Biso  2.420000 C
   C15        1.0     0.034200     0.325800     0.1640(10)  Biso  2.420000 C
   C16        1.0    -0.043600     0.174600     0.3360(10)  Biso  2.420000 C
