data_image0
_chemical_formula_structural       I8P8Cl8Si8N8C48H144
_chemical_formula_sum              "I8 P8 Cl8 Si8 N8 C48 H144"
_cell_length_a       15.107
_cell_length_b       18.628
_cell_length_c       9.889
_cell_angle_alpha    90.0
_cell_angle_beta     90.0
_cell_angle_gamma    90.0

_space_group_name_H-M_alt    "P 1"
_space_group_IT_number       1

loop_
  _space_group_symop_operation_xyz
  'x, y, z'

loop_
  _atom_site_type_symbol
  _atom_site_label
  _atom_site_symmetry_multiplicity
  _atom_site_fract_x
  _atom_site_fract_y
  _atom_site_fract_z
  _atom_site_occupancy
  I   I1        1.0  0.8032000000000002  0.7544  0.705  1.0000
  I   I2        1.0  0.1967999999999999  0.2456  0.705  1.0000
  I   I3        1.0  0.1967999999999999  0.7544  0.20500000000000007  1.0000
  I   I4        1.0  0.8032000000000002  0.2456  0.20500000000000007  1.0000
  I   I5        1.0  0.30320000000000014  0.2544  0.20500000000000007  1.0000
  I   I6        1.0  0.6967999999999999  0.7456  0.20500000000000007  1.0000
  I   I7        1.0  0.6967999999999999  0.2544  0.705  1.0000
  I   I8        1.0  0.30320000000000014  0.7456  0.705  1.0000
  P   P1        1.0  0.6416  0.6438  0.7302999999999998  1.0000
  P   P2        1.0  0.3584000000000001  0.35619999999999996  0.7302999999999998  1.0000
  P   P3        1.0  0.3584000000000001  0.6438  0.23029999999999973  1.0000
  P   P4        1.0  0.6416  0.35619999999999996  0.23029999999999973  1.0000
  P   P5        1.0  0.14159999999999998  0.14380000000000015  0.23029999999999973  1.0000
  P   P6        1.0  0.8584000000000002  0.8562  0.23029999999999973  1.0000
  P   P7        1.0  0.8584000000000002  0.14380000000000015  0.7302999999999998  1.0000
  P   P8        1.0  0.14159999999999998  0.8562  0.7302999999999998  1.0000
  Cl  Cl1       1.0  0.8749000000000001  0.8803000000000001  0.6449  1.0000
  Cl  Cl2       1.0  0.12509999999999988  0.11969999999999992  0.6449  1.0000
  Cl  Cl3       1.0  0.12509999999999988  0.8803000000000001  0.14490000000000003  1.0000
  Cl  Cl4       1.0  0.8749000000000001  0.11969999999999992  0.14490000000000003  1.0000
  Cl  Cl5       1.0  0.3749000000000003  0.3803000000000001  0.14490000000000003  1.0000
  Cl  Cl6       1.0  0.6251  0.6196999999999999  0.14490000000000003  1.0000
  Cl  Cl7       1.0  0.6251  0.3803000000000001  0.6449  1.0000
  Cl  Cl8       1.0  0.3749000000000003  0.6196999999999999  0.6449  1.0000
  Si  Si1       1.0  0.8279  0.5906  0.8231999999999999  1.0000
  Si  Si2       1.0  0.17210000000000003  0.4094  0.8231999999999999  1.0000
  Si  Si3       1.0  0.17210000000000003  0.5906  0.32319999999999993  1.0000
  Si  Si4       1.0  0.8279  0.4094  0.32319999999999993  1.0000
  Si  Si5       1.0  0.32790000000000014  0.09060000000000001  0.32319999999999993  1.0000
  Si  Si6       1.0  0.6721000000000001  0.9094  0.32319999999999993  1.0000
  Si  Si7       1.0  0.6721000000000001  0.09060000000000001  0.8231999999999999  1.0000
  Si  Si8       1.0  0.32790000000000014  0.9094  0.8231999999999999  1.0000
  N   N1        1.0  0.7456000000000003  0.649  0.7649  1.0000
  N   N2        1.0  0.25439999999999985  0.351  0.7649  1.0000
  N   N3        1.0  0.25439999999999985  0.649  0.2648999999999999  1.0000
  N   N4        1.0  0.7456000000000003  0.351  0.2648999999999999  1.0000
  N   N5        1.0  0.24560000000000007  0.14900000000000002  0.2648999999999999  1.0000
  N   N6        1.0  0.7544  0.851  0.2648999999999999  1.0000
  N   N7        1.0  0.7544  0.14900000000000002  0.7649  1.0000
  N   N8        1.0  0.24560000000000007  0.851  0.7649  1.0000
  C   C1        1.0  0.5916000000000002  0.5644  0.7930999999999999  1.0000
  C   C2        1.0  0.40839999999999993  0.4356  0.7930999999999999  1.0000
  C   C3        1.0  0.40839999999999993  0.5644  0.29309999999999986  1.0000
  C   C4        1.0  0.5916000000000002  0.4356  0.29309999999999986  1.0000
  C   C5        1.0  0.09160000000000013  0.06440000000000003  0.29309999999999986  1.0000
  C   C6        1.0  0.9083999999999999  0.9356  0.29309999999999986  1.0000
  C   C7        1.0  0.9083999999999999  0.06440000000000003  0.7930999999999999  1.0000
  C   C8        1.0  0.09160000000000013  0.9356  0.7930999999999999  1.0000
  C   C9        1.0  0.5826000000000002  0.7178  0.8061999999999999  1.0000
  C   C10       1.0  0.4173999999999999  0.2822  0.8061999999999999  1.0000
  C   C11       1.0  0.4173999999999999  0.7178  0.3062  1.0000
  C   C12       1.0  0.5826000000000002  0.2822  0.3062  1.0000
  C   C13       1.0  0.08260000000000024  0.2178  0.3062  1.0000
  C   C14       1.0  0.9174  0.7822  0.3062  1.0000
  C   C15       1.0  0.9174  0.2178  0.8061999999999999  1.0000
  C   C16       1.0  0.08260000000000024  0.7822  0.8061999999999999  1.0000
  C   C17       1.0  0.8751  0.6281  0.9767999999999999  1.0000
  C   C18       1.0  0.12490000000000002  0.37190000000000006  0.9767999999999999  1.0000
  C   C19       1.0  0.12490000000000002  0.6281  0.47679999999999984  1.0000
  C   C20       1.0  0.8751  0.37190000000000006  0.47679999999999984  1.0000
  C   C21       1.0  0.37510000000000004  0.12809999999999988  0.47679999999999984  1.0000
  C   C22       1.0  0.6249000000000001  0.8719000000000001  0.47679999999999984  1.0000
  C   C23       1.0  0.6249000000000001  0.12809999999999988  0.9767999999999999  1.0000
  C   C24       1.0  0.37510000000000004  0.8719000000000001  0.9767999999999999  1.0000
  C   C25       1.0  0.9159000000000003  0.5858  0.6910999999999999  1.0000
  C   C26       1.0  0.08409999999999986  0.4142  0.6910999999999999  1.0000
  C   C27       1.0  0.08409999999999986  0.5858  0.19110000000000005  1.0000
  C   C28       1.0  0.9159000000000003  0.4142  0.19110000000000005  1.0000
  C   C29       1.0  0.4159000000000002  0.08579999999999988  0.19110000000000005  1.0000
  C   C30       1.0  0.5840999999999998  0.9142000000000001  0.19110000000000005  1.0000
  C   C31       1.0  0.5840999999999998  0.08579999999999988  0.6910999999999999  1.0000
  C   C32       1.0  0.4159000000000002  0.9142000000000001  0.6910999999999999  1.0000
  C   C33       1.0  0.6186  0.6448  0.5556  1.0000
  C   C34       1.0  0.3814  0.35519999999999996  0.5556  1.0000
  C   C35       1.0  0.3814  0.6448  0.055600000000000094  1.0000
  C   C36       1.0  0.6186  0.35519999999999996  0.055600000000000094  1.0000
  C   C37       1.0  0.11860000000000005  0.14480000000000004  0.055600000000000094  1.0000
  C   C38       1.0  0.8814000000000001  0.8552  0.055600000000000094  1.0000
  C   C39       1.0  0.8814000000000001  0.14480000000000004  0.5556  1.0000
  C   C40       1.0  0.11860000000000005  0.8552  0.5556  1.0000
  C   C41       1.0  0.7859000000000003  0.4997  0.8606  1.0000
  C   C42       1.0  0.21409999999999987  0.5003  0.8606  1.0000
  C   C43       1.0  0.21409999999999987  0.4997  0.36060000000000003  1.0000
  C   C44       1.0  0.7859000000000003  0.5003  0.36060000000000003  1.0000
  C   C45       1.0  0.28590000000000027  0.9997  0.36060000000000003  1.0000
  C   C46       1.0  0.7141  0.00030000000000002247  0.36060000000000003  1.0000
  C   C47       1.0  0.7141  0.9997  0.8606  1.0000
  C   C48       1.0  0.28590000000000027  0.00030000000000002247  0.8606  1.0000
  H   H1        1.0  0.5279  0.5679  0.7837  1.0000
  H   H2        1.0  0.4721  0.43210000000000004  0.7837  1.0000
  H   H3        1.0  0.4721  0.5679  0.28370000000000006  1.0000
  H   H4        1.0  0.5279  0.43210000000000004  0.28370000000000006  1.0000
  H   H5        1.0  0.027900000000000036  0.06789999999999985  0.28370000000000006  1.0000
  H   H6        1.0  0.9721000000000001  0.9321  0.28370000000000006  1.0000
  H   H7        1.0  0.9721000000000001  0.06789999999999985  0.7837  1.0000
  H   H8        1.0  0.027900000000000036  0.9321  0.7837  1.0000
  H   H9        1.0  0.6067000000000002  0.5585  0.8878  1.0000
  H   H10       1.0  0.3932999999999999  0.4415  0.8878  1.0000
  H   H11       1.0  0.3932999999999999  0.5585  0.3877999999999999  1.0000
  H   H12       1.0  0.6067000000000002  0.4415  0.3877999999999999  1.0000
  H   H13       1.0  0.10670000000000003  0.058499999999999996  0.3877999999999999  1.0000
  H   H14       1.0  0.8932999999999999  0.9415  0.3877999999999999  1.0000
  H   H15       1.0  0.8932999999999999  0.058499999999999996  0.8878  1.0000
  H   H16       1.0  0.10670000000000003  0.9415  0.8878  1.0000
  H   H17       1.0  0.6130000000000002  0.5234  0.7421  1.0000
  H   H18       1.0  0.38699999999999996  0.4766000000000001  0.7421  1.0000
  H   H19       1.0  0.38699999999999996  0.5234  0.24209999999999998  1.0000
  H   H20       1.0  0.6130000000000002  0.4766000000000001  0.24209999999999998  1.0000
  H   H21       1.0  0.11299999999999999  0.023400000000000087  0.24209999999999998  1.0000
  H   H22       1.0  0.8869999999999999  0.9766  0.24209999999999998  1.0000
  H   H23       1.0  0.8869999999999999  0.023400000000000087  0.7421  1.0000
  H   H24       1.0  0.11299999999999999  0.9766  0.7421  1.0000
  H   H25       1.0  0.5227  0.7194  0.7708  1.0000
  H   H26       1.0  0.4773  0.28059999999999996  0.7708  1.0000
  H   H27       1.0  0.4773  0.7194  0.2707999999999999  1.0000
  H   H28       1.0  0.5227  0.28059999999999996  0.2707999999999999  1.0000
  H   H29       1.0  0.022699999999999942  0.21940000000000004  0.2707999999999999  1.0000
  H   H30       1.0  0.9773000000000001  0.7806  0.2707999999999999  1.0000
  H   H31       1.0  0.9773000000000001  0.21940000000000004  0.7708  1.0000
  H   H32       1.0  0.022699999999999942  0.7806  0.7708  1.0000
  H   H33       1.0  0.6127  0.7624  0.785  1.0000
  H   H34       1.0  0.3873  0.23760000000000003  0.785  1.0000
  H   H35       1.0  0.3873  0.7624  0.28500000000000014  1.0000
  H   H36       1.0  0.6127  0.23760000000000003  0.28500000000000014  1.0000
  H   H37       1.0  0.11270000000000004  0.26239999999999997  0.28500000000000014  1.0000
  H   H38       1.0  0.8873000000000001  0.7376  0.28500000000000014  1.0000
  H   H39       1.0  0.8873000000000001  0.26239999999999997  0.785  1.0000
  H   H40       1.0  0.11270000000000004  0.7376  0.785  1.0000
  H   H41       1.0  0.5807000000000002  0.7115000000000001  0.9034999999999999  1.0000
  H   H42       1.0  0.41929999999999995  0.28849999999999987  0.9034999999999999  1.0000
  H   H43       1.0  0.41929999999999995  0.7115000000000001  0.40349999999999975  1.0000
  H   H44       1.0  0.5807000000000002  0.28849999999999987  0.40349999999999975  1.0000
  H   H45       1.0  0.08070000000000022  0.21150000000000002  0.40349999999999975  1.0000
  H   H46       1.0  0.9193  0.7884999999999999  0.40349999999999975  1.0000
  H   H47       1.0  0.9193  0.21150000000000002  0.9034999999999999  1.0000
  H   H48       1.0  0.08070000000000022  0.7884999999999999  0.9034999999999999  1.0000
  H   H49       1.0  0.8278000000000002  0.643  0.03699999999999992  1.0000
  H   H50       1.0  0.1721999999999999  0.357  0.03699999999999992  1.0000
  H   H51       1.0  0.1721999999999999  0.643  0.5369999999999999  1.0000
  H   H52       1.0  0.8278000000000002  0.357  0.5369999999999999  1.0000
  H   H53       1.0  0.32780000000000015  0.14300000000000002  0.5369999999999999  1.0000
  H   H54       1.0  0.6721999999999999  0.857  0.5369999999999999  1.0000
  H   H55       1.0  0.6721999999999999  0.14300000000000002  0.03699999999999992  1.0000
  H   H56       1.0  0.32780000000000015  0.857  0.03699999999999992  1.0000
  H   H57       1.0  0.9116000000000001  0.6692  0.9542  1.0000
  H   H58       1.0  0.08839999999999992  0.3308  0.9542  1.0000
  H   H59       1.0  0.08839999999999992  0.6692  0.45420000000000016  1.0000
  H   H60       1.0  0.9116000000000001  0.3308  0.45420000000000016  1.0000
  H   H61       1.0  0.4116  0.16920000000000002  0.45420000000000016  1.0000
  H   H62       1.0  0.5884  0.8308000000000001  0.45420000000000016  1.0000
  H   H63       1.0  0.5884  0.16920000000000002  0.9542  1.0000
  H   H64       1.0  0.4116  0.8308000000000001  0.9542  1.0000
  H   H65       1.0  0.9112000000000002  0.592  0.021400000000000086  1.0000
  H   H66       1.0  0.08879999999999989  0.40800000000000003  0.021400000000000086  1.0000
  H   H67       1.0  0.08879999999999989  0.592  0.5214000000000001  1.0000
  H   H68       1.0  0.9112000000000002  0.40800000000000003  0.5214000000000001  1.0000
  H   H69       1.0  0.41120000000000007  0.09200000000000008  0.5214000000000001  1.0000
  H   H70       1.0  0.5887999999999999  0.908  0.5214000000000001  1.0000
  H   H71       1.0  0.5887999999999999  0.09200000000000008  0.021400000000000086  1.0000
  H   H72       1.0  0.41120000000000007  0.908  0.021400000000000086  1.0000
  H   H73       1.0  0.9669000000000002  0.5605  0.7267999999999999  1.0000
  H   H74       1.0  0.033099999999999914  0.4395  0.7267999999999999  1.0000
  H   H75       1.0  0.033099999999999914  0.5605  0.22679999999999986  1.0000
  H   H76       1.0  0.9669000000000002  0.4395  0.22679999999999986  1.0000
  H   H77       1.0  0.46690000000000015  0.060500000000000005  0.22679999999999986  1.0000
  H   H78       1.0  0.5331  0.9395  0.22679999999999986  1.0000
  H   H79       1.0  0.5331  0.060500000000000005  0.7267999999999999  1.0000
  H   H80       1.0  0.46690000000000015  0.9395  0.7267999999999999  1.0000
  H   H81       1.0  0.9332  0.6341  0.6651  1.0000
  H   H82       1.0  0.06679999999999997  0.3659  0.6651  1.0000
  H   H83       1.0  0.06679999999999997  0.6341  0.16510000000000002  1.0000
  H   H84       1.0  0.9332  0.3659  0.16510000000000002  1.0000
  H   H85       1.0  0.4332000000000001  0.1341000000000001  0.16510000000000002  1.0000
  H   H86       1.0  0.5668000000000001  0.8659  0.16510000000000002  1.0000
  H   H87       1.0  0.5668000000000001  0.1341000000000001  0.6651  1.0000
  H   H88       1.0  0.4332000000000001  0.8659  0.6651  1.0000
  H   H89       1.0  0.8934000000000002  0.5605  0.6126  1.0000
  H   H90       1.0  0.10659999999999992  0.4395  0.6126  1.0000
  H   H91       1.0  0.10659999999999992  0.5605  0.11260000000000003  1.0000
  H   H92       1.0  0.8934000000000002  0.4395  0.11260000000000003  1.0000
  H   H93       1.0  0.3934000000000002  0.060500000000000005  0.11260000000000003  1.0000
  H   H94       1.0  0.6065999999999999  0.9395  0.11260000000000003  1.0000
  H   H95       1.0  0.6065999999999999  0.060500000000000005  0.6126  1.0000
  H   H96       1.0  0.3934000000000002  0.9395  0.6126  1.0000
  H   H97       1.0  0.5551000000000003  0.6425  0.5416  1.0000
  H   H98       1.0  0.4448999999999999  0.35750000000000004  0.5416  1.0000
  H   H99       1.0  0.4448999999999999  0.6425  0.04159999999999986  1.0000
  H   H100      1.0  0.5551000000000003  0.35750000000000004  0.04159999999999986  1.0000
  H   H101      1.0  0.05510000000000015  0.14250000000000007  0.04159999999999986  1.0000
  H   H102      1.0  0.9448999999999999  0.8575  0.04159999999999986  1.0000
  H   H103      1.0  0.9448999999999999  0.14250000000000007  0.5416  1.0000
  H   H104      1.0  0.05510000000000015  0.8575  0.5416  1.0000
  H   H105      1.0  0.6466000000000002  0.6038  0.5128  1.0000
  H   H106      1.0  0.3534  0.3962  0.5128  1.0000
  H   H107      1.0  0.3534  0.6038  0.012799999999999923  1.0000
  H   H108      1.0  0.6466000000000002  0.3962  0.012799999999999923  1.0000
  H   H109      1.0  0.1466000000000001  0.10380000000000011  0.012799999999999923  1.0000
  H   H110      1.0  0.8534  0.8962000000000001  0.012799999999999923  1.0000
  H   H111      1.0  0.8534  0.10380000000000011  0.5128  1.0000
  H   H112      1.0  0.1466000000000001  0.8962000000000001  0.5128  1.0000
  H   H113      1.0  0.6415000000000002  0.6887  0.5161  1.0000
  H   H114      1.0  0.3585  0.3113  0.5161  1.0000
  H   H115      1.0  0.3585  0.6887  0.016100000000000003  1.0000
  H   H116      1.0  0.6415000000000002  0.3113  0.016100000000000003  1.0000
  H   H117      1.0  0.14150000000000018  0.18869999999999987  0.016100000000000003  1.0000
  H   H118      1.0  0.8584999999999999  0.8113  0.016100000000000003  1.0000
  H   H119      1.0  0.8584999999999999  0.18869999999999987  0.5161  1.0000
  H   H120      1.0  0.14150000000000018  0.8113  0.5161  1.0000
  H   H121      1.0  0.8317000000000001  0.472  0.905  1.0000
  H   H122      1.0  0.16829999999999992  0.528  0.905  1.0000
  H   H123      1.0  0.16829999999999992  0.472  0.405  1.0000
  H   H124      1.0  0.8317000000000001  0.528  0.405  1.0000
  H   H125      1.0  0.33170000000000016  0.972  0.405  1.0000
  H   H126      1.0  0.6683  0.02800000000000003  0.405  1.0000
  H   H127      1.0  0.6683  0.972  0.905  1.0000
  H   H128      1.0  0.33170000000000016  0.02800000000000003  0.905  1.0000
  H   H129      1.0  0.7693000000000002  0.4761000000000001  0.7769  1.0000
  H   H130      1.0  0.23069999999999993  0.5238999999999999  0.7769  1.0000
  H   H131      1.0  0.23069999999999993  0.4761000000000001  0.2768999999999999  1.0000
  H   H132      1.0  0.7693000000000002  0.5238999999999999  0.2768999999999999  1.0000
  H   H133      1.0  0.26930000000000015  0.9761000000000002  0.2768999999999999  1.0000
  H   H134      1.0  0.7307  0.02389999999999992  0.2768999999999999  1.0000
  H   H135      1.0  0.7307  0.9761000000000002  0.7769  1.0000
  H   H136      1.0  0.26930000000000015  0.02389999999999992  0.7769  1.0000
  H   H137      1.0  0.7345000000000003  0.5032  0.919  1.0000
  H   H138      1.0  0.2654999999999999  0.4968  0.919  1.0000
  H   H139      1.0  0.2654999999999999  0.5032  0.41900000000000004  1.0000
  H   H140      1.0  0.7345000000000003  0.4968  0.41900000000000004  1.0000
  H   H141      1.0  0.23450000000000018  0.0032000000000000917  0.41900000000000004  1.0000
  H   H142      1.0  0.7655  0.9968000000000001  0.41900000000000004  1.0000
  H   H143      1.0  0.7655  0.0032000000000000917  0.919  1.0000
  H   H144      1.0  0.23450000000000018  0.9968000000000001  0.919  1.0000
