
#======================================================================
# CRYSTAL DATA
#----------------------------------------------------------------------
data_VESTA_phase_1

_chemical_name_common                  'Ca2 O20 Si8 Th1'
_cell_length_a                         7.483(3)
_cell_length_b                         7.483(3)
_cell_length_c                         14.893(6)
_cell_angle_alpha                      90.000000
_cell_angle_beta                       90.000000
_cell_angle_gamma                      90.000000
_cell_volume                           833.937775
_space_group_name_H-M_alt              'I 4 2 2'
_space_group_IT_number                 97

loop_
_space_group_symop_operation_xyz
   'x, y, z'
   '-x, -y, z'
   '-y, x, z'
   'y, -x, z'
   '-x, y, -z'
   'x, -y, -z'
   'y, x, -z'
   '-y, -x, -z'
   'x+1/2, y+1/2, z+1/2'
   '-x+1/2, -y+1/2, z+1/2'
   '-y+1/2, x+1/2, z+1/2'
   'y+1/2, -x+1/2, z+1/2'
   '-x+1/2, y+1/2, -z+1/2'
   'x+1/2, -y+1/2, -z+1/2'
   'y+1/2, x+1/2, -z+1/2'
   '-y+1/2, -x+1/2, -z+1/2'

loop_
   _atom_site_label
   _atom_site_occupancy
   _atom_site_fract_x
   _atom_site_fract_y
   _atom_site_fract_z
   _atom_site_adp_type
   _atom_site_B_iso_or_equiv
   _atom_site_type_symbol
   Th1        1.0     0.000000     0.000000     0.000000    Bani  0.918531 Th
   Ca1        1.0     0.500000     0.000000     0.000000    Bani  1.889700 Ca
   Si1        1.0     0.3335(2)    0.2540(2)    0.14790(10) Bani  1.387008 Si
   O1         1.0     0.7924(8)    0.2924(8)    0.250000    Bani  3.734658 O
   O2         1.0     0.2544(7)    0.4521(5)    0.1251(4)   Bani  2.397656 O
   O3         1.0     0.2553(7)    0.1075(7)    0.0818(4)   Bani  2.105516 O

loop_
   _atom_site_aniso_label
   _atom_site_aniso_U_11
   _atom_site_aniso_U_22
   _atom_site_aniso_U_33
   _atom_site_aniso_U_12
   _atom_site_aniso_U_13
   _atom_site_aniso_U_23
   Th1	 0.01030  0.01030  0.01430  0.00000  0.00000  0.00000
   Ca1	 0.01580  0.02930  0.02670  0.00000  0.00000  0.00000
   Si1	 0.01600  0.01470  0.02200 -0.00050 -0.00070 -0.00150
   O1	 0.06060  0.06060  0.02070  0.01270  0.00690  0.00690
   O2	 0.02620  0.01260  0.05230  0.00250 -0.00130  0.00280
   O3	 0.02300  0.02790  0.02910 -0.00250 -0.00700 -0.00810
