
#======================================================================
# CRYSTAL DATA
#----------------------------------------------------------------------
data_VESTA_phase_1

_chemical_name_common                  'B314.7'
_cell_length_a                         10.9251(2)
_cell_length_b                         10.9251(2)
_cell_length_c                         23.8143(8)
_cell_angle_alpha                      90.000000
_cell_angle_beta                       90.000000
_cell_angle_gamma                      120.000000
_cell_volume                           2461.610465
_space_group_name_H-M_alt              'R -3 m'
_space_group_IT_number                 166

loop_
_space_group_symop_operation_xyz
   'x, y, z'
   '-x, -y, -z'
   '-y, x-y, z'
   'y, -x+y, -z'
   '-x+y, -x, z'
   'x-y, x, -z'
   'y, x, -z'
   '-y, -x, z'
   'x-y, -y, -z'
   '-x+y, y, z'
   '-x, -x+y, -z'
   'x, x-y, z'
   'x+2/3, y+1/3, z+1/3'
   '-x+2/3, -y+1/3, -z+1/3'
   '-y+2/3, x-y+1/3, z+1/3'
   'y+2/3, -x+y+1/3, -z+1/3'
   '-x+y+2/3, -x+1/3, z+1/3'
   'x-y+2/3, x+1/3, -z+1/3'
   'y+2/3, x+1/3, -z+1/3'
   '-y+2/3, -x+1/3, z+1/3'
   'x-y+2/3, -y+1/3, -z+1/3'
   '-x+y+2/3, y+1/3, z+1/3'
   '-x+2/3, -x+y+1/3, -z+1/3'
   'x+2/3, x-y+1/3, z+1/3'
   'x+1/3, y+2/3, z+2/3'
   '-x+1/3, -y+2/3, -z+2/3'
   '-y+1/3, x-y+2/3, z+2/3'
   'y+1/3, -x+y+2/3, -z+2/3'
   '-x+y+1/3, -x+2/3, z+2/3'
   'x-y+1/3, x+2/3, -z+2/3'
   'y+1/3, x+2/3, -z+2/3'
   '-y+1/3, -x+2/3, z+2/3'
   'x-y+1/3, -y+2/3, -z+2/3'
   '-x+y+1/3, y+2/3, z+2/3'
   '-x+1/3, -x+y+2/3, -z+2/3'
   'x+1/3, x-y+2/3, z+2/3'

loop_
   _atom_site_label
   _atom_site_occupancy
   _atom_site_fract_x
   _atom_site_fract_y
   _atom_site_fract_z
   _atom_site_adp_type
   _atom_site_B_iso_or_equiv
   _atom_site_type_symbol
   B1         1.0     0.1730(3)    0.1740(3)    0.17661(8)  Biso  0.488000 B
   B2         1.0     0.3189(3)    0.2954(3)    0.12935(8)  Biso  0.406000 B
   B3         1.0     0.2616(3)    0.2177(3)    0.41974(8)  Biso  0.450000 B
   B4         1.0     0.2350(3)    0.2515(3)    0.34689(8)  Biso  0.420000 B
   B5         1.0     0.05436(16)  0.1087(4)    0.94389(11) Biso  0.392000 B
   B6         1.0     0.08640(16)  0.1728(4)    0.01309(12) Biso  0.397000 B
   B7         1.0     0.10981(16)  0.2196(4)    0.88617(12) Biso  0.390000 B
   B8         1.0     0.17017(16)  0.3403(4)    0.02778(12) Biso  0.445000 B
   B9         1.0     0.12873(16)  0.2575(4)    0.76625(11) Biso  0.397000 B
   B10        1.0     0.10211(16)  0.2042(4)    0.69851(12) Biso  0.376000 B
   B11        1.0     0.05652(16)  0.1130(4)    0.32659(11) Biso  0.395000 B
   B12        1.0     0.08962(16)  0.1792(4)    0.39902(12) Biso  0.419000 B
   B13        0.7340  0.0578(3)    0.1157(5)    0.55385(18) Biso  0.830000 B
   B14        1.0     0.000000     0.000000     0.3853(3)   Biso  0.381000 B
   B15        1.0     0.000000     0.000000     0.500000    Biso  1.020000 B
   B16        0.2480  0.0557(7)    0.1115(13)   0.1173(5)   Biso  0.330000 B
