
#======================================================================
# CRYSTAL DATA
#----------------------------------------------------------------------
data_VESTA_phase_1

_chemical_name_common                  'F4 Si1'
_cell_length_a                         5.4760(10)
_cell_length_b                         5.4760(10)
_cell_length_c                         5.4760(10)
_cell_angle_alpha                      90.000000
_cell_angle_beta                       90.000000
_cell_angle_gamma                      90.000000
_cell_volume                           164.206475
_space_group_name_H-M_alt              'I -4 3 m'
_space_group_IT_number                 217

loop_
_space_group_symop_operation_xyz
   'x, y, z'
   '-x, -y, z'
   '-x, y, -z'
   'x, -y, -z'
   'z, x, y'
   'z, -x, -y'
   '-z, -x, y'
   '-z, x, -y'
   'y, z, x'
   '-y, z, -x'
   'y, -z, -x'
   '-y, -z, x'
   'y, x, z'
   '-y, -x, z'
   'y, -x, -z'
   '-y, x, -z'
   'x, z, y'
   '-x, z, -y'
   '-x, -z, y'
   'x, -z, -y'
   'z, y, x'
   'z, -y, -x'
   '-z, y, -x'
   '-z, -y, x'
   'x+1/2, y+1/2, z+1/2'
   '-x+1/2, -y+1/2, z+1/2'
   '-x+1/2, y+1/2, -z+1/2'
   'x+1/2, -y+1/2, -z+1/2'
   'z+1/2, x+1/2, y+1/2'
   'z+1/2, -x+1/2, -y+1/2'
   '-z+1/2, -x+1/2, y+1/2'
   '-z+1/2, x+1/2, -y+1/2'
   'y+1/2, z+1/2, x+1/2'
   '-y+1/2, z+1/2, -x+1/2'
   'y+1/2, -z+1/2, -x+1/2'
   '-y+1/2, -z+1/2, x+1/2'
   'y+1/2, x+1/2, z+1/2'
   '-y+1/2, -x+1/2, z+1/2'
   'y+1/2, -x+1/2, -z+1/2'
   '-y+1/2, x+1/2, -z+1/2'
   'x+1/2, z+1/2, y+1/2'
   '-x+1/2, z+1/2, -y+1/2'
   '-x+1/2, -z+1/2, y+1/2'
   'x+1/2, -z+1/2, -y+1/2'
   'z+1/2, y+1/2, x+1/2'
   'z+1/2, -y+1/2, -x+1/2'
   '-z+1/2, y+1/2, -x+1/2'
   '-z+1/2, -y+1/2, x+1/2'

loop_
   _atom_site_label
   _atom_site_occupancy
   _atom_site_fract_x
   _atom_site_fract_y
   _atom_site_fract_z
   _atom_site_adp_type
   _atom_site_B_iso_or_equiv
   _atom_site_type_symbol
   Si1        1.0     0.000000     0.000000     0.000000    Bani 255.485641 Si
   F1         1.0     0.1624(2)    0.1624(2)    0.1624(2)   Bani 412.615295 F

loop_
   _atom_site_aniso_label
   _atom_site_aniso_U_11
   _atom_site_aniso_U_22
   _atom_site_aniso_U_33
   _atom_site_aniso_U_12
   _atom_site_aniso_U_13
   _atom_site_aniso_U_23
   Si1	 3.23576  3.23576  3.23576  0.00000  0.00000  0.00000
   F1	 5.22583  5.22583  5.22583 -0.95706 -0.95706 -0.95706
