data_image0
_chemical_formula_structural       C32H32
_chemical_formula_sum              "C32 H32"
_cell_length_a       7.6761
_cell_length_b       7.6761
_cell_length_c       9.1966
_cell_angle_alpha    90.0
_cell_angle_beta     90.0
_cell_angle_gamma    90.0

_space_group_name_H-M_alt    "P 1"
_space_group_IT_number       1

loop_
  _space_group_symop_operation_xyz
  'x, y, z'

loop_
  _atom_site_type_symbol
  _atom_site_label
  _atom_site_symmetry_multiplicity
  _atom_site_fract_x
  _atom_site_fract_y
  _atom_site_fract_z
  _atom_site_occupancy
  C   C1        1.0  0.123525  0.633022  0.903242  1.0000
  C   C2        1.0  0.876475  0.366978  0.903242  1.0000
  C   C3        1.0  0.633022  0.876475  0.09675800000000001  1.0000
  C   C4        1.0  0.366978  0.123525  0.09675800000000001  1.0000
  C   C5        1.0  0.623525  0.8669780000000001  0.4032420000000001  1.0000
  C   C6        1.0  0.376475  0.13302199999999997  0.4032420000000001  1.0000
  C   C7        1.0  0.13302199999999997  0.623525  0.596758  1.0000
  C   C8        1.0  0.8669780000000001  0.376475  0.596758  1.0000
  C   C9        1.0  0.250907  0.535369  0.830826  1.0000
  C   C10       1.0  0.749093  0.464631  0.830826  1.0000
  C   C11       1.0  0.535369  0.749093  0.16917400000000005  1.0000
  C   C12       1.0  0.464631  0.250907  0.16917400000000005  1.0000
  C   C13       1.0  0.750907  0.964631  0.33082600000000006  1.0000
  C   C14       1.0  0.249093  0.035368999999999984  0.33082600000000006  1.0000
  C   C15       1.0  0.035368999999999984  0.750907  0.669174  1.0000
  C   C16       1.0  0.964631  0.249093  0.669174  1.0000
  C   C17       1.0  0.06217200000000001  0.583105  0.053466000000000014  1.0000
  C   C18       1.0  0.937828  0.416895  0.053466000000000014  1.0000
  C   C19       1.0  0.583105  0.937828  0.946534  1.0000
  C   C20       1.0  0.416895  0.06217200000000001  0.946534  1.0000
  C   C21       1.0  0.562172  0.916895  0.553466  1.0000
  C   C22       1.0  0.437828  0.08310499999999998  0.553466  1.0000
  C   C23       1.0  0.08310499999999998  0.562172  0.446534  1.0000
  C   C24       1.0  0.916895  0.437828  0.446534  1.0000
  C   C25       1.0  0.254854  0.53009  0.679214  1.0000
  C   C26       1.0  0.745146  0.46991000000000005  0.679214  1.0000
  C   C27       1.0  0.53009  0.745146  0.320786  1.0000
  C   C28       1.0  0.46991000000000005  0.254854  0.320786  1.0000
  C   C29       1.0  0.7548540000000001  0.96991  0.17921399999999998  1.0000
  C   C30       1.0  0.24514599999999998  0.03008999999999995  0.17921399999999998  1.0000
  C   C31       1.0  0.03008999999999995  0.7548540000000001  0.820786  1.0000
  C   C32       1.0  0.96991  0.24514599999999998  0.820786  1.0000
  H   H1        1.0  0.328875  0.4445530000000001  0.8917210000000001  1.0000
  H   H2        1.0  0.671125  0.555447  0.8917210000000001  1.0000
  H   H3        1.0  0.4445530000000001  0.671125  0.1082789999999999  1.0000
  H   H4        1.0  0.555447  0.328875  0.1082789999999999  1.0000
  H   H5        1.0  0.828875  0.05544699999999997  0.391721  1.0000
  H   H6        1.0  0.17112500000000003  0.944553  0.391721  1.0000
  H   H7        1.0  0.944553  0.828875  0.6082789999999999  1.0000
  H   H8        1.0  0.05544699999999997  0.17112500000000003  0.6082789999999999  1.0000
  H   H9        1.0  0.339671  0.441257  0.622827  1.0000
  H   H10       1.0  0.6603289999999999  0.558743  0.622827  1.0000
  H   H11       1.0  0.441257  0.6603289999999999  0.377173  1.0000
  H   H12       1.0  0.558743  0.339671  0.377173  1.0000
  H   H13       1.0  0.8396710000000001  0.05874299999999999  0.12282700000000003  1.0000
  H   H14       1.0  0.160329  0.941257  0.12282700000000003  1.0000
  H   H15       1.0  0.941257  0.8396710000000001  0.8771730000000001  1.0000
  H   H16       1.0  0.05874299999999999  0.160329  0.8771730000000001  1.0000
  H   H17       1.0  0.984824  0.688054  0.09904700000000011  1.0000
  H   H18       1.0  0.015176  0.31194599999999995  0.09904700000000011  1.0000
  H   H19       1.0  0.688054  0.015176  0.9009529999999999  1.0000
  H   H20       1.0  0.31194599999999995  0.984824  0.9009529999999999  1.0000
  H   H21       1.0  0.484824  0.811946  0.5990470000000001  1.0000
  H   H22       1.0  0.515176  0.18805400000000017  0.5990470000000001  1.0000
  H   H23       1.0  0.18805400000000017  0.484824  0.4009529999999999  1.0000
  H   H24       1.0  0.811946  0.515176  0.4009529999999999  1.0000
  H   H25       1.0  0.16878  0.552875  0.12670800000000004  1.0000
  H   H26       1.0  0.83122  0.447125  0.12670800000000004  1.0000
  H   H27       1.0  0.552875  0.83122  0.8732919999999998  1.0000
  H   H28       1.0  0.447125  0.16878  0.8732919999999998  1.0000
  H   H29       1.0  0.66878  0.947125  0.626708  1.0000
  H   H30       1.0  0.33121999999999996  0.052875000000000005  0.626708  1.0000
  H   H31       1.0  0.052875000000000005  0.66878  0.37329199999999996  1.0000
  H   H32       1.0  0.947125  0.33121999999999996  0.37329199999999996  1.0000
