
#======================================================================
# CRYSTAL DATA
#----------------------------------------------------------------------
data_VESTA_phase_1

_chemical_name_common                  'Ga1'
_cell_length_a                         4.523000
_cell_length_b                         7.661000
_cell_length_c                         4.524000
_cell_angle_alpha                      90.000000
_cell_angle_beta                       90.000000
_cell_angle_gamma                      90.000000
_cell_volume                           156.759773
_space_group_name_H-M_alt              'C m c e'
_space_group_IT_number                 64

loop_
_space_group_symop_operation_xyz
   'x, y, z'
   '-x, -y, -z'
   '-x, -y+1/2, z+1/2'
   'x, y+1/2, -z+1/2'
   '-x, y+1/2, -z+1/2'
   'x, -y+1/2, z+1/2'
   'x, -y, -z'
   '-x, y, z'
   'x+1/2, y+1/2, z'
   '-x+1/2, -y+1/2, -z'
   '-x+1/2, -y, z+1/2'
   'x+1/2, y, -z+1/2'
   '-x+1/2, y, -z+1/2'
   'x+1/2, -y, z+1/2'
   'x+1/2, -y+1/2, -z'
   '-x+1/2, y+1/2, z'

loop_
   _atom_site_label
   _atom_site_occupancy
   _atom_site_fract_x
   _atom_site_fract_y
   _atom_site_fract_z
   _atom_site_adp_type
   _atom_site_B_iso_or_equiv
   _atom_site_type_symbol
   Ga1        1.0     0.000000     0.1549(8)    0.0810(7)   Biso  ? Ga
