
#======================================================================
# CRYSTAL DATA
#----------------------------------------------------------------------
data_VESTA_phase_1

_chemical_name_common                  'Br2 S2'
_cell_length_a                         13.490(7)
_cell_length_b                         6.788(4)
_cell_length_c                         5.245(2)
_cell_angle_alpha                      90.000000
_cell_angle_beta                       90.000000
_cell_angle_gamma                      90.000000
_cell_volume                           480.285268
_space_group_name_H-M_alt              'A e a 2'
_space_group_IT_number                 41

loop_
_space_group_symop_operation_xyz
   'x, y, z'
   '-x, -y, z'
   'x+1/2, -y+1/2, z'
   '-x+1/2, y+1/2, z'
   'x, y+1/2, z+1/2'
   '-x, -y+1/2, z+1/2'
   'x+1/2, -y, z+1/2'
   '-x+1/2, y, z+1/2'

loop_
   _atom_site_label
   _atom_site_occupancy
   _atom_site_fract_x
   _atom_site_fract_y
   _atom_site_fract_z
   _atom_site_adp_type
   _atom_site_B_iso_or_equiv
   _atom_site_type_symbol
   S1         1.0     0.04680(8)   0.1092(2)    0.2995(4)   Bani 506.678406 S
   Br1        1.0     0.16186(3)   0.05667(6)   0.000000    Bani 589.582214 Br

loop_
   _atom_site_aniso_label
   _atom_site_aniso_U_11
   _atom_site_aniso_U_22
   _atom_site_aniso_U_33
   _atom_site_aniso_U_12
   _atom_site_aniso_U_13
   _atom_site_aniso_U_23
   S1	10.97087  5.15877  3.12183 -0.09278 -0.82443 -1.24453
   Br1	11.43183  6.88614  4.08347 -1.11336  0.17922 -0.21644
