
#======================================================================
# CRYSTAL DATA
#----------------------------------------------------------------------
data_VESTA_phase_1

_chemical_name_common                  'Nb1 O2'
_cell_length_a                         9.693(3)
_cell_length_b                         9.693(3)
_cell_length_c                         5.9850(10)
_cell_angle_alpha                      90.000000
_cell_angle_beta                       90.000000
_cell_angle_gamma                      90.000000
_cell_volume                           562.316174
_space_group_name_H-M_alt              'I 41'
_space_group_IT_number                 80

loop_
_space_group_symop_operation_xyz
   'x, y, z'
   '-x+1/2, -y+1/2, z+1/2'
   '-y, x+1/2, z+1/4'
   'y+1/2, -x, z+3/4'
   'x+1/2, y+1/2, z+1/2'
   '-x, -y, z'
   '-y+1/2, x, z+3/4'
   'y, -x+1/2, z+1/4'

loop_
   _atom_site_label
   _atom_site_occupancy
   _atom_site_fract_x
   _atom_site_fract_y
   _atom_site_fract_z
   _atom_site_adp_type
   _atom_site_B_iso_or_equiv
   _atom_site_type_symbol
   Nb1        1.0     0.2621(2)    0.5076(4)    0.0299(4)   Bani  0.526379 Nb
   Nb2        1.0     0.2455(2)    0.4909(2)    0.4804(4)   Bani  0.218447 Nb
   O1         1.0     0.3974(10)   0.1497(13)   0.008(3)    Biso  0.001000 O
   O2         1.0     0.110(3)     0.364(3)    -0.009(6)    Biso  0.025400 O
   O3         1.0     0.6086(11)   0.3609(13)   0.506(3)    Biso  0.002700 O
   O4         1.0     0.650(4)     0.104(3)     0.248(7)    Biso  0.346000 O

loop_
   _atom_site_aniso_label
   _atom_site_aniso_U_11
   _atom_site_aniso_U_22
   _atom_site_aniso_U_33
   _atom_site_aniso_U_12
   _atom_site_aniso_U_13
   _atom_site_aniso_U_23
   Nb1	 0.01000  0.00580  0.00420  0.00560 -0.00560 -0.00450
   Nb2	 0.00280  0.00190  0.00360 -0.00160 -0.00160 -0.00160
