
#======================================================================
# CRYSTAL DATA
#----------------------------------------------------------------------
data_VESTA_phase_1

_chemical_name_common                  'B2 O3'
_cell_length_a                         4.3358(5)
_cell_length_b                         4.3358(5)
_cell_length_c                         8.3397(18)
_cell_angle_alpha                      90.000000
_cell_angle_beta                       90.000000
_cell_angle_gamma                      120.000000
_cell_volume                           135.774922
_space_group_name_H-M_alt              'P 31'
_space_group_IT_number                 144

loop_
_space_group_symop_operation_xyz
   'x, y, z'
   '-y, x-y, z+1/3'
   '-x+y, -x, z+2/3'

loop_
   _atom_site_label
   _atom_site_occupancy
   _atom_site_fract_x
   _atom_site_fract_y
   _atom_site_fract_z
   _atom_site_adp_type
   _atom_site_B_iso_or_equiv
   _atom_site_type_symbol
   O1         1.0     0.547(3)     0.397(4)     0.000000    Biso  0.820000 O
   O2         1.0     0.148(3)     0.600(4)     0.0775(9)   Biso  0.750000 O
   O3         1.0     0.004(3)     0.161(4)    -0.129(3)    Biso  0.580000 O
   B1         1.0     0.223(5)     0.393(5)    -0.020(3)    Biso  1.280000 B
   B2         1.0     0.828(5)     0.603(5)     0.092(3)    Biso  0.810000 B
