
#======================================================================
# CRYSTAL DATA
#----------------------------------------------------------------------
data_VESTA_phase_1

_chemical_name_common                  'F3 Fe0.46 K0.54 Mn0.54'
_cell_length_a                         12.7650(10)
_cell_length_b                         12.7650(10)
_cell_length_c                         8.0020(10)
_cell_angle_alpha                      90.000000
_cell_angle_beta                       90.000000
_cell_angle_gamma                      90.000000
_cell_volume                           1303.887737
_space_group_name_H-M_alt              'P 42 b c'
_space_group_IT_number                 106

loop_
_space_group_symop_operation_xyz
   'x, y, z'
   '-x, -y, z'
   '-y, x, z+1/2'
   'y, -x, z+1/2'
   'x+1/2, -y+1/2, z'
   '-x+1/2, y+1/2, z'
   '-y+1/2, -x+1/2, z+1/2'
   'y+1/2, x+1/2, z+1/2'

loop_
   _atom_site_label
   _atom_site_occupancy
   _atom_site_fract_x
   _atom_site_fract_y
   _atom_site_fract_z
   _atom_site_adp_type
   _atom_site_B_iso_or_equiv
   _atom_site_type_symbol
   K1         0.7000  0.000000     0.000000     0.2503(8)   Biso  ? K
   K2         1.0     0.1695(2)    0.6728(2)    0.2501(7)   Biso  ? K
   Mn1        0.5400  0.075800     0.214400    -0.0004(4)   Biso  ? Mn
   Mn2        0.5400  0.290100     0.424400     0.0000(4)   Biso  ? Mn
   Mn3        0.5400  0.000000     0.500000     0.000000    Biso  ? Mn
   Fe1        0.4600  0.075800     0.214400    -0.0004(4)   Biso  ? Fe
   Fe2        0.4600  0.290100     0.424400     0.0000(4)   Biso  ? Fe
   Fe3        0.4600  0.000000     0.500000     0.000000    Biso  ? Fe
   F1         1.0     0.000000     0.500000     0.2509(15)  Biso  ? F
   F2         1.0     0.0783(4)    0.2099(5)    0.2620(13)  Biso  ? F
   F3         1.0     0.9221(5)    0.7949(4)    0.7416(13)  Biso  ? F
   F4         1.0     0.9827(2)    0.3462(2)    0.0074(13)  Biso  ? F
   F5         1.0     0.3430(2)    0.9962(2)    0.0066(14)  Biso  ? F
   F6         1.0     0.1483(2)    0.0650(2)    0.0059(13)  Biso  ? F
   F7         1.0     0.0704(2)    0.86500(10)  0.0075(13)  Biso  ? F
   F8         1.0     0.27320(10)  0.78420(10) -0.0007(10)  Biso  ? F

loop_
   _atom_site_aniso_label
   _atom_site_aniso_U_11
   _atom_site_aniso_U_22
   _atom_site_aniso_U_33
   _atom_site_aniso_U_12
   _atom_site_aniso_U_13
   _atom_site_aniso_U_23
