
#======================================================================
# CRYSTAL DATA
#----------------------------------------------------------------------
data_VESTA_phase_1

_chemical_name_common                  'C1'
_cell_length_a                         2.460000
_cell_length_b                         4.260000
_cell_length_c                         28.959990
_cell_angle_alpha                      90.000000
_cell_angle_beta                       90.000000
_cell_angle_gamma                      90.000000
_cell_volume                           303.489127
_space_group_name_H-M_alt              'C m c 21'
_space_group_IT_number                 36

loop_
_space_group_symop_operation_xyz
   'x, y, z'
   '-x, -y, z+1/2'
   'x, -y, z+1/2'
   '-x, y, z'
   'x+1/2, y+1/2, z'
   '-x+1/2, -y+1/2, z+1/2'
   'x+1/2, -y+1/2, z+1/2'
   '-x+1/2, y+1/2, z'

loop_
   _atom_site_label
   _atom_site_occupancy
   _atom_site_fract_x
   _atom_site_fract_y
   _atom_site_fract_z
   _atom_site_adp_type
   _atom_site_B_iso_or_equiv
   _atom_site_type_symbol
   C1         1.0     0.000000     0.166700     0.000000    Biso  ? C
   C2         1.0     0.000000     0.166700     0.269000    Biso  ? C
   C3         1.0     0.000000     0.166700     0.384000    Biso  ? C
   C4         1.0     0.000000     0.166700     0.500000    Biso  ? C
   C5         1.0     0.000000     0.166700     0.769000    Biso  ? C
   C6         1.0     0.000000     0.500000     0.384000    Biso  ? C
