
#======================================================================
# CRYSTAL DATA
#----------------------------------------------------------------------
data_VESTA_phase_1

_chemical_name_common                  'O2 Si1'
_cell_length_a                         7.456000
_cell_length_b                         7.456000
_cell_length_c                         8.604000
_cell_angle_alpha                      90.000000
_cell_angle_beta                       90.000000
_cell_angle_gamma                      90.000000
_cell_volume                           478.313003
_space_group_name_H-M_alt              'P 43 21 2'
_space_group_IT_number                 96

loop_
_space_group_symop_operation_xyz
   'x, y, z'
   '-x, -y, z+1/2'
   '-y+1/2, x+1/2, z+3/4'
   'y+1/2, -x+1/2, z+1/4'
   '-x+1/2, y+1/2, -z+3/4'
   'x+1/2, -y+1/2, -z+1/4'
   'y, x, -z'
   '-y, -x, -z+1/2'

loop_
   _atom_site_label
   _atom_site_occupancy
   _atom_site_fract_x
   _atom_site_fract_y
   _atom_site_fract_z
   _atom_site_adp_type
   _atom_site_B_iso_or_equiv
   _atom_site_type_symbol
   Si1        1.0     0.326000     0.120000     0.248000    Biso  2.390000 Si
   Si2        1.0     0.410000     0.410000     0.000000    Biso  2.390000 Si
   O1         1.0     0.445000     0.132000     0.400000    Biso  2.390000 O
   O2         1.0     0.117000     0.123000     0.296000    Biso  2.390000 O
   O3         1.0     0.344000     0.297000     0.143000    Biso  2.390000 O
