data_image0
_chemical_formula_structural       Cd2Br4N4C8H8C8H8C4
_chemical_formula_sum              "Cd2 Br4 N4 C20 H16"
_cell_length_a       11.7966
_cell_length_b       12.5019
_cell_length_c       3.8851
_cell_angle_alpha    90.0
_cell_angle_beta     90.0
_cell_angle_gamma    90.0

_space_group_name_H-M_alt    "P 1"
_space_group_IT_number       1

loop_
  _space_group_symop_operation_xyz
  'x, y, z'

loop_
  _atom_site_type_symbol
  _atom_site_label
  _atom_site_symmetry_multiplicity
  _atom_site_fract_x
  _atom_site_fract_y
  _atom_site_fract_z
  _atom_site_occupancy
  Cd  Cd1       1.0  0.25  0.25  0.5  1.0000
  Cd  Cd2       1.0  0.75  0.75  0.5  1.0000
  Br  Br1       1.0  0.25  0.09254  0.0  1.0000
  Br  Br2       1.0  0.25  0.40746  0.0  1.0000
  Br  Br3       1.0  0.75  0.9074599999999999  0.0  1.0000
  Br  Br4       1.0  0.75  0.59254  0.0  1.0000
  N   N1        1.0  0.0497  0.25  0.5  1.0000
  N   N2        1.0  0.4503  0.25  0.5  1.0000
  N   N3        1.0  0.9503  0.75  0.5  1.0000
  N   N4        1.0  0.5497  0.75  0.5  1.0000
  C   C1        1.0  0.9918999999999999  0.16069999999999998  0.58  1.0000
  C   C2        1.0  0.5081  0.33930000000000005  0.58  1.0000
  C   C3        1.0  0.5081  0.16069999999999998  0.4200000000000001  1.0000
  C   C4        1.0  0.9918999999999999  0.33930000000000005  0.4200000000000001  1.0000
  C   C5        1.0  0.0081  0.8393  0.4200000000000001  1.0000
  C   C6        1.0  0.49189999999999995  0.6607  0.4200000000000001  1.0000
  C   C7        1.0  0.49189999999999995  0.8393  0.58  1.0000
  C   C8        1.0  0.0081  0.6607  0.58  1.0000
  H   H1        1.0  0.0339  0.0957  0.6393  1.0000
  H   H2        1.0  0.46609999999999996  0.4043  0.6393  1.0000
  H   H3        1.0  0.46609999999999996  0.0957  0.3607  1.0000
  H   H4        1.0  0.0339  0.4043  0.3607  1.0000
  H   H5        1.0  0.9661  0.9043  0.3607  1.0000
  H   H6        1.0  0.5339  0.5957  0.3607  1.0000
  H   H7        1.0  0.5339  0.9043  0.6393  1.0000
  H   H8        1.0  0.9661  0.5957  0.6393  1.0000
  C   C9        1.0  0.8745999999999999  0.1583  0.58  1.0000
  C   C10       1.0  0.6254  0.3417  0.58  1.0000
  C   C11       1.0  0.6254  0.1583  0.4200000000000001  1.0000
  C   C12       1.0  0.8745999999999999  0.3417  0.4200000000000001  1.0000
  C   C13       1.0  0.1254  0.8416999999999999  0.4200000000000001  1.0000
  C   C14       1.0  0.3746  0.6583  0.4200000000000001  1.0000
  C   C15       1.0  0.3746  0.8416999999999999  0.58  1.0000
  C   C16       1.0  0.1254  0.6583  0.58  1.0000
  H   H9        1.0  0.8352999999999998  0.0916  0.6369  1.0000
  H   H10       1.0  0.6647000000000001  0.4084  0.6369  1.0000
  H   H11       1.0  0.6647000000000001  0.0916  0.36310000000000003  1.0000
  H   H12       1.0  0.8352999999999998  0.4084  0.36310000000000003  1.0000
  H   H13       1.0  0.1647  0.9083999999999999  0.36310000000000003  1.0000
  H   H14       1.0  0.3353  0.5916  0.36310000000000003  1.0000
  H   H15       1.0  0.3353  0.9083999999999999  0.6369  1.0000
  H   H16       1.0  0.1647  0.5916  0.6369  1.0000
  C   C17       1.0  0.8113  0.25  0.5  1.0000
  C   C18       1.0  0.6887  0.25  0.5  1.0000
  C   C19       1.0  0.18869999999999995  0.75  0.5  1.0000
  C   C20       1.0  0.3113  0.75  0.5  1.0000
