
#======================================================================
# CRYSTAL DATA
#----------------------------------------------------------------------
data_VESTA_phase_1

_chemical_name_common                  'Br2 Hg1'
_cell_length_a                         4.6240(10)
_cell_length_b                         6.7890(10)
_cell_length_c                         12.4450(10)
_cell_angle_alpha                      90.000000
_cell_angle_beta                       90.000000
_cell_angle_gamma                      90.000000
_cell_volume                           390.677620
_space_group_name_H-M_alt              'C m c 21'
_space_group_IT_number                 36

loop_
_space_group_symop_operation_xyz
   'x, y, z'
   '-x, -y, z+1/2'
   'x, -y, z+1/2'
   '-x, y, z'
   'x+1/2, y+1/2, z'
   '-x+1/2, -y+1/2, z+1/2'
   'x+1/2, -y+1/2, z+1/2'
   '-x+1/2, y+1/2, z'

loop_
   _atom_site_label
   _atom_site_occupancy
   _atom_site_fract_x
   _atom_site_fract_y
   _atom_site_fract_z
   _atom_site_adp_type
   _atom_site_B_iso_or_equiv
   _atom_site_type_symbol
   Hg1        1.0     0.000000     0.333(7)     0.000000    Biso  ? Hg
   Br1        1.0     0.000000     0.061(10)    0.134(5)    Biso  ? Br
   Br2        1.0     0.000000     0.395(10)    0.366(5)    Biso  ? Br
