
#======================================================================
# CRYSTAL DATA
#----------------------------------------------------------------------
data_VESTA_phase_1

_chemical_name_common                  'Cl1 In1'
_cell_length_a                         12.3730(10)
_cell_length_b                         12.3730(10)
_cell_length_c                         12.3730(10)
_cell_angle_alpha                      90.000000
_cell_angle_beta                       90.000000
_cell_angle_gamma                      90.000000
_cell_volume                           1894.196606
_space_group_name_H-M_alt              'P 21 3'
_space_group_IT_number                 198

loop_
_space_group_symop_operation_xyz
   'x, y, z'
   '-x+1/2, -y, z+1/2'
   '-x, y+1/2, -z+1/2'
   'x+1/2, -y+1/2, -z'
   'z, x, y'
   'z+1/2, -x+1/2, -y'
   '-z+1/2, -x, y+1/2'
   '-z, x+1/2, -y+1/2'
   'y, z, x'
   '-y, z+1/2, -x+1/2'
   'y+1/2, -z+1/2, -x'
   '-y+1/2, -z, x+1/2'

loop_
   _atom_site_label
   _atom_site_occupancy
   _atom_site_fract_x
   _atom_site_fract_y
   _atom_site_fract_z
   _atom_site_adp_type
   _atom_site_B_iso_or_equiv
   _atom_site_type_symbol
   In1        1.0     0.24873(5)   0.21978(5)  -0.02881(6)  Bani  3.426727 In
   In2        1.0     0.75270(5)   0.77805(5)   0.02948(6)  Bani  3.071421 In
   In3        1.0     0.03016(5)   0.03016(5)   0.03016(5)  Bani  2.992464 In
   In4        1.0     0.46731(5)   0.46731(5)   0.46731(5)  Bani  3.031943 In
   Cl1        1.0     0.3005(2)   -0.0504(2)    0.0005(2)   Bani  3.210911 Cl
   Cl2        1.0     0.7998(2)    0.0549(2)   -0.0110(2)   Bani  2.947722 Cl
   Cl3        1.0     0.2061(2)    0.2061(2)    0.2061(2)   Bani  2.858238 Cl
   Cl4        1.0     0.7986(2)    0.7986(2)    0.7986(2)   Bani  2.992464 Cl

loop_
   _atom_site_aniso_label
   _atom_site_aniso_U_11
   _atom_site_aniso_U_22
   _atom_site_aniso_U_33
   _atom_site_aniso_U_12
   _atom_site_aniso_U_13
   _atom_site_aniso_U_23
   In1	 0.05420  0.03840  0.03760 -0.00680  0.01150 -0.01150
   In2	 0.03610  0.04050  0.04010  0.01200  0.01110 -0.00630
   In3	 0.03790  0.03790  0.03790 -0.00970 -0.00970 -0.00970
   In4	 0.03840  0.03840  0.03840 -0.01160 -0.01160 -0.01160
   Cl1	 0.03800  0.03500  0.04900  0.00500  0.00400  0.00500
   Cl2	 0.03600  0.03500  0.04100  0.00050 -0.00400  0.00250
   Cl3	 0.03620  0.03620  0.03620 -0.00500 -0.00500 -0.00500
   Cl4	 0.03790  0.03790  0.03790  0.00080  0.00080  0.00080
