
#======================================================================
# CRYSTAL DATA
#----------------------------------------------------------------------
data_VESTA_phase_1

_chemical_name_common                  'S10'
_cell_length_a                         12.533(9)
_cell_length_b                         10.275(9)
_cell_length_c                         12.776(9)
_cell_angle_alpha                      90.000000
_cell_angle_beta                       37.98(2)
_cell_angle_gamma                      90.000000
_cell_volume                           1012.464085
_space_group_name_H-M_alt              'C 2/c'
_space_group_IT_number                 15

loop_
_space_group_symop_operation_xyz
   'x, y, z'
   '-x, -y, -z'
   '-x, y, -z+1/2'
   'x, -y, z+1/2'
   'x+1/2, y+1/2, z'
   '-x+1/2, -y+1/2, -z'
   '-x+1/2, y+1/2, -z+1/2'
   'x+1/2, -y+1/2, z+1/2'

loop_
   _atom_site_label
   _atom_site_occupancy
   _atom_site_fract_x
   _atom_site_fract_y
   _atom_site_fract_z
   _atom_site_adp_type
   _atom_site_B_iso_or_equiv
   _atom_site_type_symbol
   S1         1.0     0.59590(10)  0.28780(10)  0.73080(10) Bani  1.955852 S
   S2         1.0     0.76090(10)  0.44010(10)  0.56400(10) Bani  2.058565 S
   S3         1.0     0.76570(10)  0.55170(10)  0.69310(10) Bani  2.283742 S
   S4         1.0     0.54570(10)  0.66270(10)  0.87260(10) Bani  2.143310 S
   S5         1.0     0.59470(10)  0.81440(10)  0.73210(10) Bani  2.095083 S

loop_
   _atom_site_aniso_label
   _atom_site_aniso_U_11
   _atom_site_aniso_U_22
   _atom_site_aniso_U_33
   _atom_site_aniso_U_12
   _atom_site_aniso_U_13
   _atom_site_aniso_U_23
   S1	 0.02540  0.01940  0.03260 -0.00070 -0.02360  0.00360
   S2	 0.02180  0.02010  0.02890 -0.00010 -0.01820 -0.00060
   S3	 0.02640  0.02530  0.04370  0.00340 -0.02970 -0.00440
   S4	 0.02630  0.03140  0.02670  0.00460 -0.02160 -0.00310
   S5	 0.02630  0.02090  0.03550 -0.00300 -0.02510  0.00030
