data_image0
_chemical_formula_structural       Gd4O24C24H8C12H4
_chemical_formula_sum              "Gd4 O24 C36 H12"
_cell_length_a       10.3635
_cell_length_b       10.3635
_cell_length_c       13.8321
_cell_angle_alpha    90.0
_cell_angle_beta     90.0
_cell_angle_gamma    90.0

_space_group_name_H-M_alt    "P 1"
_space_group_IT_number       1

loop_
  _space_group_symop_operation_xyz
  'x, y, z'

loop_
  _atom_site_type_symbol
  _atom_site_label
  _atom_site_symmetry_multiplicity
  _atom_site_fract_x
  _atom_site_fract_y
  _atom_site_fract_z
  _atom_site_occupancy
  Gd  Gd1       1.0  0.8774  0.1226  0.125  1.0000
  Gd  Gd2       1.0  0.12260000000000004  0.8774  0.625  1.0000
  Gd  Gd3       1.0  0.8774  0.8774  0.37500000000000006  1.0000
  Gd  Gd4       1.0  0.1226  0.12260000000000004  0.875  1.0000
  O   O1        1.0  0.9176  0.3161  0.0524  1.0000
  O   O2        1.0  0.08240000000000003  0.6839  0.5524  1.0000
  O   O3        1.0  0.6839  0.9176  0.3024  1.0000
  O   O4        1.0  0.3161  0.08240000000000003  0.8024  1.0000
  O   O5        1.0  0.08240000000000003  0.3161  0.9476  1.0000
  O   O6        1.0  0.9176  0.6839  0.4476  1.0000
  O   O7        1.0  0.3161  0.9176  0.6976000000000001  1.0000
  O   O8        1.0  0.6839  0.08240000000000003  0.1976  1.0000
  O   O9        1.0  0.9176  0.7302  0.2494  1.0000
  O   O10       1.0  0.08240000000000003  0.26980000000000004  0.7494000000000001  1.0000
  O   O11       1.0  0.26980000000000004  0.9176  0.4994  1.0000
  O   O12       1.0  0.7302  0.08240000000000003  0.9994000000000001  1.0000
  O   O13       1.0  0.08240000000000003  0.7302  0.7505999999999999  1.0000
  O   O14       1.0  0.9176  0.26980000000000004  0.2506  1.0000
  O   O15       1.0  0.7302  0.9176  0.5005999999999999  1.0000
  O   O16       1.0  0.26980000000000004  0.08240000000000003  0.0005999999999999894  1.0000
  O   O17       1.0  0.9129999999999999  0.9082  0.16810000000000003  1.0000
  O   O18       1.0  0.08700000000000008  0.09179999999999999  0.6681  1.0000
  O   O19       1.0  0.09179999999999999  0.9129999999999999  0.4181  1.0000
  O   O20       1.0  0.9082  0.08700000000000008  0.9181  1.0000
  O   O21       1.0  0.08700000000000008  0.9082  0.8319000000000001  1.0000
  O   O22       1.0  0.9129999999999999  0.09179999999999999  0.3319  1.0000
  O   O23       1.0  0.9082  0.9129999999999999  0.5819  1.0000
  O   O24       1.0  0.09179999999999999  0.08700000000000008  0.08189999999999997  1.0000
  C   C1        1.0  0.0  0.3733  0.0  1.0000
  C   C2        1.0  0.0  0.6267  0.5  1.0000
  C   C3        1.0  0.6267  0.0  0.25  1.0000
  C   C4        1.0  0.3733  0.0  0.7500000000000001  1.0000
  C   C5        1.0  0.9281  0.7902999999999999  0.17100000000000004  1.0000
  C   C6        1.0  0.07189999999999996  0.2097000000000001  0.671  1.0000
  C   C7        1.0  0.2097000000000001  0.9281  0.42100000000000004  1.0000
  C   C8        1.0  0.7902999999999999  0.07189999999999996  0.921  1.0000
  C   C9        1.0  0.07189999999999996  0.7902999999999999  0.8290000000000001  1.0000
  C   C10       1.0  0.9281  0.2097000000000001  0.32899999999999996  1.0000
  C   C11       1.0  0.7902999999999999  0.9281  0.579  1.0000
  C   C12       1.0  0.2097000000000001  0.07189999999999996  0.07899999999999996  1.0000
  C   C13       1.0  0.0  0.5131  0.0  1.0000
  C   C14       1.0  0.0  0.4869  0.5  1.0000
  C   C15       1.0  0.4869  0.0  0.25  1.0000
  C   C16       1.0  0.5131  0.0  0.7500000000000001  1.0000
  C   C17       1.0  0.9625  0.5833  0.0818  1.0000
  C   C18       1.0  0.03749999999999998  0.41669999999999996  0.5818  1.0000
  C   C19       1.0  0.41669999999999996  0.9625  0.3318  1.0000
  C   C20       1.0  0.5833  0.03749999999999998  0.8318  1.0000
  C   C21       1.0  0.03749999999999998  0.5833  0.9182000000000001  1.0000
  C   C22       1.0  0.9625  0.41669999999999996  0.4182  1.0000
  C   C23       1.0  0.5833  0.9625  0.6682  1.0000
  C   C24       1.0  0.41669999999999996  0.03749999999999998  0.16820000000000004  1.0000
  H   H1        1.0  0.9356  0.5393  0.1369  1.0000
  H   H2        1.0  0.06440000000000001  0.4607  0.6369  1.0000
  H   H3        1.0  0.4607  0.9356  0.3869  1.0000
  H   H4        1.0  0.5393  0.06440000000000001  0.8869  1.0000
  H   H5        1.0  0.06440000000000001  0.5393  0.8631  1.0000
  H   H6        1.0  0.9356  0.4607  0.36310000000000003  1.0000
  H   H7        1.0  0.5393  0.9356  0.6131  1.0000
  H   H8        1.0  0.4607  0.06440000000000001  0.1131  1.0000
  C   C25       1.0  0.9644999999999999  0.7162  0.0825  1.0000
  C   C26       1.0  0.03550000000000009  0.28380000000000005  0.5825  1.0000
  C   C27       1.0  0.28380000000000005  0.9644999999999999  0.3325  1.0000
  C   C28       1.0  0.7162  0.03550000000000009  0.8325  1.0000
  C   C29       1.0  0.03550000000000009  0.7162  0.9175  1.0000
  C   C30       1.0  0.9644999999999999  0.28380000000000005  0.4175  1.0000
  C   C31       1.0  0.7162  0.9644999999999999  0.6675000000000001  1.0000
  C   C32       1.0  0.28380000000000005  0.03550000000000009  0.1675  1.0000
  C   C33       1.0  0.0  0.7804  0.0  1.0000
  C   C34       1.0  0.0  0.21960000000000005  0.5  1.0000
  C   C35       1.0  0.21960000000000005  0.0  0.25  1.0000
  C   C36       1.0  0.7804  0.0  0.7500000000000001  1.0000
  H   H9        1.0  0.0  0.8701999999999999  0.0  1.0000
  H   H10       1.0  0.0  0.12980000000000014  0.5  1.0000
  H   H11       1.0  0.12980000000000014  0.0  0.25  1.0000
  H   H12       1.0  0.8701999999999999  0.0  0.7500000000000001  1.0000
