data_image0
_chemical_formula_structural       Cd2O4C8H4C4H4C8H4C4H4C12H12N8C8H12
_chemical_formula_sum              "Cd2 O4 C44 H40 N8"
_cell_length_a       15.21594
_cell_length_b       9.06114
_cell_length_c       7.75331
_cell_angle_alpha    90.0
_cell_angle_beta     90.0
_cell_angle_gamma    90.0

_space_group_name_H-M_alt    "P 1"
_space_group_IT_number       1

loop_
  _space_group_symop_operation_xyz
  'x, y, z'

loop_
  _atom_site_type_symbol
  _atom_site_label
  _atom_site_symmetry_multiplicity
  _atom_site_fract_x
  _atom_site_fract_y
  _atom_site_fract_z
  _atom_site_occupancy
  Cd  Cd1       1.0  0.0  0.0  0.24999999999999994  1.0000
  Cd  Cd2       1.0  0.0  0.0  0.75  1.0000
  O   O1        1.0  0.9100999999999998  0.7172  0.8359999999999997  1.0000
  O   O2        1.0  0.9100999999999998  0.28280000000000005  0.3359999999999998  1.0000
  O   O3        1.0  0.08990000000000009  0.7172  0.3359999999999998  1.0000
  O   O4        1.0  0.08990000000000009  0.28280000000000005  0.8359999999999997  1.0000
  C   C1        1.0  0.4568316  0.4600482  0.4805132  1.0000
  C   C2        1.0  0.4568316  0.5399518  0.9805132  1.0000
  C   C3        1.0  0.5431684  0.4600482  0.9805132  1.0000
  C   C4        1.0  0.5431684  0.5399518  0.4805132  1.0000
  C   C5        1.0  0.38195900000000005  0.5292717  0.4172275  1.0000
  C   C6        1.0  0.38195900000000005  0.47072830000000004  0.9172274999999999  1.0000
  C   C7        1.0  0.618041  0.5292717  0.9172274999999999  1.0000
  C   C8        1.0  0.618041  0.47072830000000004  0.4172275  1.0000
  H   H1        1.0  0.3854672  0.6271884  0.3739747  1.0000
  H   H2        1.0  0.3854672  0.3728116  0.8739747  1.0000
  H   H3        1.0  0.6145328  0.6271884  0.8739747  1.0000
  H   H4        1.0  0.6145328  0.3728116  0.3739747  1.0000
  C   C9        1.0  0.30195360000000004  0.4552275999999999  0.4172275  1.0000
  C   C10       1.0  0.30195360000000004  0.5447724  0.9172274999999999  1.0000
  C   C11       1.0  0.6980464  0.4552275999999999  0.9172274999999999  1.0000
  C   C12       1.0  0.6980464  0.5447724  0.4172275  1.0000
  H   H5        1.0  0.2507817000000001  0.5025386000000001  0.3739747  1.0000
  H   H6        1.0  0.2507817000000001  0.4974614  0.8739747  1.0000
  H   H7        1.0  0.7492182999999998  0.5025386000000001  0.8739747  1.0000
  H   H8        1.0  0.7492182999999998  0.4974614  0.3739747  1.0000
  C   C13       1.0  0.29682070000000005  0.31196  0.4805132  1.0000
  C   C14       1.0  0.29682070000000005  0.68804  0.9805132  1.0000
  C   C15       1.0  0.7031793  0.31196  0.9805132  1.0000
  C   C16       1.0  0.7031793  0.68804  0.4805132  1.0000
  C   C17       1.0  0.37169319999999995  0.24273650000000002  0.5437989  1.0000
  C   C18       1.0  0.37169319999999995  0.7572635  0.043798900000000085  1.0000
  C   C19       1.0  0.6283068  0.24273650000000002  0.043798900000000085  1.0000
  C   C20       1.0  0.6283068  0.7572635  0.5437989  1.0000
  H   H9        1.0  0.36818510000000004  0.14481980000000005  0.5870516999999997  1.0000
  H   H10       1.0  0.36818510000000004  0.8551802  0.08705169999999995  1.0000
  H   H11       1.0  0.6318149  0.14481980000000005  0.08705169999999995  1.0000
  H   H12       1.0  0.6318149  0.8551802  0.5870516999999997  1.0000
  C   C21       1.0  0.45169869999999995  0.31678059999999997  0.5437989  1.0000
  C   C22       1.0  0.45169869999999995  0.6832194  0.043798900000000085  1.0000
  C   C23       1.0  0.5483013  0.31678059999999997  0.043798900000000085  1.0000
  C   C24       1.0  0.5483013  0.6832194  0.5437989  1.0000
  H   H13       1.0  0.5028706000000001  0.26946950000000003  0.5870516999999997  1.0000
  H   H14       1.0  0.5028706000000001  0.7305305  0.08705169999999995  1.0000
  H   H15       1.0  0.4971294  0.26946950000000003  0.08705169999999995  1.0000
  H   H16       1.0  0.4971294  0.7305305  0.5870516999999997  1.0000
  C   C25       1.0  0.2108498000000001  0.23239489999999996  0.4805132  1.0000
  C   C26       1.0  0.2108498000000001  0.7676051  0.9805132  1.0000
  C   C27       1.0  0.7891501999999998  0.23239489999999996  0.9805132  1.0000
  C   C28       1.0  0.7891501999999998  0.7676051  0.4805132  1.0000
  C   C29       1.0  0.1803859  0.14244100000000004  0.6075651999999998  1.0000
  C   C30       1.0  0.1803859  0.857559  0.1075651999999998  1.0000
  C   C31       1.0  0.8196141  0.14244100000000004  0.1075651999999998  1.0000
  C   C32       1.0  0.8196141  0.857559  0.6075651999999998  1.0000
  C   C33       1.0  0.22714080000000003  0.10577689999999995  0.7720068999999998  1.0000
  C   C34       1.0  0.22714080000000003  0.8942231  0.27200690000000005  1.0000
  C   C35       1.0  0.7728592  0.10577689999999995  0.27200690000000005  1.0000
  C   C36       1.0  0.7728592  0.8942231  0.7720068999999998  1.0000
  H   H17       1.0  0.18525879999999992  0.08528639999999998  0.8596647999999998  1.0000
  H   H18       1.0  0.18525879999999992  0.9147136  0.3596648  1.0000
  H   H19       1.0  0.8147412  0.08528639999999998  0.3596648  1.0000
  H   H20       1.0  0.8147412  0.9147136  0.8596647999999998  1.0000
  H   H21       1.0  0.26335030000000004  0.02164979999999994  0.7547710999999998  1.0000
  H   H22       1.0  0.26335030000000004  0.9783502000000001  0.2547710999999999  1.0000
  H   H23       1.0  0.7366497  0.02164979999999994  0.2547710999999999  1.0000
  H   H24       1.0  0.7366497  0.9783502000000001  0.7547710999999998  1.0000
  H   H25       1.0  0.2625193  0.18709960000000003  0.8060644  1.0000
  H   H26       1.0  0.2625193  0.8129004  0.3060643999999999  1.0000
  H   H27       1.0  0.7374807  0.18709960000000003  0.3060643999999999  1.0000
  H   H28       1.0  0.7374807  0.8129004  0.8060644  1.0000
  N   N1        1.0  0.09999990000000014  0.09163489999999996  0.5590357  1.0000
  N   N2        1.0  0.09999990000000014  0.9083651  0.059035699999999906  1.0000
  N   N3        1.0  0.9000000999999997  0.09163489999999996  0.059035699999999906  1.0000
  N   N4        1.0  0.9000000999999997  0.9083651  0.5590357  1.0000
  N   N5        1.0  0.08078250000000009  0.15018900000000002  0.4019907  1.0000
  N   N6        1.0  0.08078250000000009  0.849811  0.9019906999999999  1.0000
  N   N7        1.0  0.9192174999999998  0.15018900000000002  0.9019906999999999  1.0000
  N   N8        1.0  0.9192174999999998  0.849811  0.4019907  1.0000
  C   C37       1.0  0.14929140000000007  0.23718349999999996  0.35346119999999986  1.0000
  C   C38       1.0  0.14929140000000007  0.7628165  0.8534611999999999  1.0000
  C   C39       1.0  0.8507085999999998  0.23718349999999996  0.8534611999999999  1.0000
  C   C40       1.0  0.8507085999999998  0.7628165  0.35346119999999986  1.0000
  C   C41       1.0  0.15580110000000003  0.32314319999999996  0.18901949999999995  1.0000
  C   C42       1.0  0.15580110000000003  0.6768568  0.6890195  1.0000
  C   C43       1.0  0.8441989  0.32314319999999996  0.6890195  1.0000
  C   C44       1.0  0.8441989  0.6768568  0.18901949999999995  1.0000
  H   H29       1.0  0.21868620000000005  0.3829589  0.1856945  1.0000
  H   H30       1.0  0.21868620000000005  0.6170411  0.6856945  1.0000
  H   H31       1.0  0.7813138  0.3829589  0.6856945  1.0000
  H   H32       1.0  0.7813138  0.6170411  0.1856945  1.0000
  H   H33       1.0  0.15225659999999994  0.2471473  0.0786021  1.0000
  H   H34       1.0  0.15225659999999994  0.7528527  0.5786021  1.0000
  H   H35       1.0  0.8477434  0.2471473  0.5786021  1.0000
  H   H36       1.0  0.8477434  0.7528527  0.0786021  1.0000
  H   H37       1.0  0.10124940000000004  0.40256230000000004  0.1817856  1.0000
  H   H38       1.0  0.10124940000000004  0.5974377  0.6817856  1.0000
  H   H39       1.0  0.8987506  0.40256230000000004  0.6817856  1.0000
  H   H40       1.0  0.8987506  0.5974377  0.1817856  1.0000
