
#======================================================================
# CRYSTAL DATA
#----------------------------------------------------------------------
data_VESTA_phase_1

_chemical_name_common                  'Te12 U7'
_cell_length_a                         12.3120(10)
_cell_length_b                         12.3120(10)
_cell_length_c                         4.2600(10)
_cell_angle_alpha                      90.000000
_cell_angle_beta                       90.000000
_cell_angle_gamma                      120.000000
_cell_volume                           559.239047
_space_group_name_H-M_alt              'P -6'
_space_group_IT_number                 174

loop_
_space_group_symop_operation_xyz
   'x, y, z'
   '-y, x-y, z'
   '-x+y, -x, z'
   'x, y, -z'
   '-y, x-y, -z'
   '-x+y, -x, -z'

loop_
   _atom_site_label
   _atom_site_occupancy
   _atom_site_fract_x
   _atom_site_fract_y
   _atom_site_fract_z
   _atom_site_adp_type
   _atom_site_B_iso_or_equiv
   _atom_site_type_symbol
   U1         1.0     0.000000     0.000000     0.000000    Biso  0.660000 U
   U2         1.0     0.17380(10)  0.46590(10)  0.500000    Biso  0.760000 U
   U3         1.0     0.43350(10)  0.26760(10)  0.000000    Biso  0.610000 U
   Te1        1.0     0.21730(10)  0.20940(10)  0.500000    Biso  0.710000 Te
   Te2        1.0     0.52570(10)  0.13490(10)  0.500000    Biso  0.680000 Te
   Te3        1.0     0.37690(10)  0.49560(10)  0.000000    Biso  0.880000 Te
   Te4        1.0     0.01680(10)  0.26440(10)  0.000000    Biso  0.840000 Te

#======================================================================
# CRYSTAL DATA
#----------------------------------------------------------------------
data_VESTA_phase_2

_chemical_name_common                  'Ca10.92 Hg54.08'
_cell_length_a                         13.3890(10)
_cell_length_b                         13.3890(10)
_cell_length_c                         9.6150(10)
_cell_angle_alpha                      90.000000
_cell_angle_beta                       90.000000
_cell_angle_gamma                      120.000000
_cell_volume                           1492.712567
_space_group_name_H-M_alt              'P -6'
_space_group_IT_number                 174

loop_
_space_group_symop_operation_xyz
   'x, y, z'
   '-y, x-y, z'
   '-x+y, -x, z'
   'x, y, -z'
   '-y, x-y, -z'
   '-x+y, -x, -z'

loop_
   _atom_site_label
   _atom_site_occupancy
   _atom_site_fract_x
   _atom_site_fract_y
   _atom_site_fract_z
   _atom_site_adp_type
   _atom_site_B_iso_or_equiv
   _atom_site_type_symbol
   Ca1        1.0     0.4648(7)    0.0570(7)    0.500000    Bani  0.657974 Ca
   Ca2        1.0     0.2095(7)    0.2581(7)    0.500000    Bani  0.640428 Ca
   Ca3        1.0     0.4314(7)    0.3094(7)    0.000000    Bani  0.508833 Ca
   Ca4        0.9600  0.333333     0.666667     0.1958(7)   Bani  0.631655 Ca
   Hg1        0.0400  0.333333     0.666667     0.1958(7)   Bani  0.631655 Hg
   Hg2        1.0     0.45020(9)   0.27803(8)   0.34502(9)  Bani  0.764127 Hg
   Hg3        1.0     0.23760(9)   0.04878(9)   0.34421(11) Bani  1.160666 Hg
   Hg4        1.0     0.17959(10)  0.20441(9)   0.17133(10) Bani  1.109782 Hg
   Hg5        1.0     0.45994(9)   0.10535(8)   0.16234(10) Bani  0.825538 Hg
   Hg6        1.0     0.14091(9)   0.41489(9)   0.29577(12) Bani  1.008016 Hg
   Hg7        1.0     0.39398(8)   0.44905(8)   0.26161(10) Bani  0.762372 Hg
   Hg8        1.0     0.34605(14)  0.54704(12)  0.500000    Bani  1.054512 Hg
   Hg9        1.0     0.23638(12)  0.02794(13)  0.000000    Bani  1.204530 Hg
   Hg10       1.0     0.24942(12)  0.41372(13)  0.000000    Bani  1.034335 Hg
   Hg11       1.0     0.10603(12)  0.51002(12)  0.000000    Bani  0.898353 Hg
   Hg12       1.0     0.666667     0.333333     0.1568(2)   Bani  0.967660 Hg
   Hg13       1.0     0.000000     0.000000     0.3448(2)   Bani  1.016789 Hg
   Hg14       1.0     0.666667     0.333333     0.500000    Bani  0.710612 Hg
   Hg15       1.0     0.000000     0.000000     0.000000    Bani  1.277346 Hg

loop_
   _atom_site_aniso_label
   _atom_site_aniso_U_11
   _atom_site_aniso_U_22
   _atom_site_aniso_U_33
   _atom_site_aniso_U_12
   _atom_site_aniso_U_13
   _atom_site_aniso_U_23
   Ca1	 0.01000  0.00600  0.00900  0.00400  0.00000  0.00000
   Ca2	 0.01200  0.00800  0.00700  0.00700  0.00000  0.00000
   Ca3	 0.00500  0.00800  0.00600  0.00300  0.00000  0.00000
   Ca4	 0.00700  0.00700  0.01000  0.00350  0.00000  0.00000
   Hg1	 0.00700  0.00700  0.01000  0.00350  0.00000  0.00000
   Hg2	 0.01180  0.00990  0.00930  0.00690 -0.00090 -0.00080
   Hg3	 0.01040  0.01220  0.02290  0.00670 -0.00050 -0.00130
   Hg4	 0.01590  0.01160  0.01110  0.00420  0.00020  0.00130
   Hg5	 0.01430  0.00850  0.00990  0.00670  0.00130  0.00010
   Hg6	 0.00880  0.01230  0.01710  0.00520  0.00200  0.00420
   Hg7	 0.01180  0.01170  0.00830  0.00800 -0.00020  0.00050
   Hg8	 0.02350  0.01180  0.01060  0.01320  0.00000  0.00000
   Hg9	 0.01000  0.01570  0.01830  0.00510  0.00000  0.00000
   Hg10	 0.01240  0.01640  0.01330  0.00930  0.00000  0.00000
   Hg11	 0.00900  0.01210  0.01320  0.00540  0.00000  0.00000
   Hg12	 0.01070  0.01070  0.01530  0.00530  0.00000  0.00000
   Hg13	 0.01090  0.01090  0.01690  0.00550  0.00000  0.00000
   Hg14	 0.00700  0.00700  0.01300  0.00350  0.00000  0.00000
   Hg15	 0.01310  0.01310  0.02240  0.00660  0.00000  0.00000

#======================================================================
# CRYSTAL DATA
#----------------------------------------------------------------------
data_VESTA_phase_3

_chemical_name_common                  'Hg51.81 Na11.19'
_cell_length_a                         39.703(2)
_cell_length_b                         39.703(2)
_cell_length_c                         9.6810(5)
_cell_angle_alpha                      90.000000
_cell_angle_beta                       90.000000
_cell_angle_gamma                      120.000000
_cell_volume                           13215.922067
_space_group_name_H-M_alt              'P -6'
_space_group_IT_number                 174

loop_
_space_group_symop_operation_xyz
   'x, y, z'
   '-y, x-y, z'
   '-x+y, -x, z'
   'x, y, -z'
   '-y, x-y, -z'
   '-x+y, -x, -z'

loop_
   _atom_site_label
   _atom_site_occupancy
   _atom_site_fract_x
   _atom_site_fract_y
   _atom_site_fract_z
   _atom_site_adp_type
   _atom_site_B_iso_or_equiv
   _atom_site_type_symbol
   Hg1        1.0     0.99235(10)  0.77700(11)  0.6584(5)   Bani  2.233601 Hg
   Hg2        1.0     0.99191(11)  0.85495(12)  0.8348(7)   Bani  3.309169 Hg
   Hg3        1.0     0.99049(10)  0.92151(9)   0.6544(7)   Bani  4.279460 Hg
   Hg4        1.0     0.97477(9)   0.69454(9)   0.6522(5)   Bani  2.989832 Hg
   Hg5        1.0     0.97421(11)  0.62889(10)  0.8381(5)   Bani  2.967023 Hg
   Hg6        1.0     0.97449(10)  0.46641(11)  0.7376(5)   Bani  3.017906 Hg
   Hg7        1.0     0.97410(11)  0.54952(11)  0.6805(7)   Bani  3.030188 Hg
   Hg8        1.0     0.92856(12)  0.94222(12)  0.8226(5)   Bani  4.019780 Hg
   Hg9        1.0     0.92104(9)   0.77471(10)  0.7390(7)   Bani  2.798581 Hg
   Hg10       1.0     0.91526(11)  0.85382(12)  0.6949(5)   Bani  3.128445 Hg
   Hg11       1.0     0.91234(12)  0.69717(11)  0.8364(5)   Bani  2.874029 Hg
   Hg12       1.0     0.89764(10)  0.56197(10)  0.7369(4)   Bani  2.879292 Hg
   Hg13       1.0     0.89183(10)  0.62874(10)  0.6560(4)   Bani  2.968777 Hg
   Hg14       1.0     0.88388(11)  0.39430(11)  0.6958(5)   Bani  3.056507 Hg
   Hg15       1.0     0.84889(11)  0.94138(10)  0.6551(5)   Bani  2.856483 Hg
   Hg16       1.0     0.84603(9)   0.87103(10)  0.7380(4)   Bani  3.168801 Hg
   Hg17       1.0     0.83238(12)  0.69859(12)  0.6809(7)   Bani  3.186347 Hg
   Hg18       1.0     0.82797(11)  0.63294(12)  0.8489(7)   Bani  5.867370 Hg
   Hg19       1.0     0.81838(11)  0.47697(11)  0.6958(7)   Bani  3.038961 Hg
   Hg20       1.0     0.81695(12)  0.55248(13)  0.8237(7)   Bani  4.061891 Hg
   Hg21       1.0     0.80163(10)  0.38827(11)  0.7395(4)   Bani  3.007378 Hg
   Hg22       1.0     0.78276(10)  0.94137(10)  0.8467(5)   Bani  3.253022 Hg
   Hg23       1.0     0.76619(11)  0.85966(11)  0.8415(5)   Bani  3.246003 Hg
   Hg24       1.0     0.76634(11)  0.78704(11)  0.6985(7)   Bani  3.170556 Hg
   Hg25       1.0     0.75792(12)  0.56291(12)  0.6540(5)   Bani  3.409181 Hg
   Hg26       1.0     0.74904(10)  0.69742(10)  0.7370(5)   Bani  3.121427 Hg
   Hg27       1.0     0.74832(11)  0.48247(12)  0.6533(7)   Bani  3.939069 Hg
   Hg28       1.0     0.74462(11)  0.62044(11)  0.8267(5)   Bani  3.605695 Hg
   Hg29       1.0     0.73892(12)  0.40908(13)  0.8373(7)   Bani  3.184592 Hg
   Hg30       1.0     0.71734(10)  0.95885(10)  0.8438(5)   Bani  2.509073 Hg
   Hg31       1.0     0.71696(11)  0.87773(12)  0.6632(5)   Bani  2.821391 Hg
   Hg32       1.0     0.69627(11)  0.79310(10)  0.6517(7)   Bani  4.490012 Hg
   Hg33       1.0     0.68932(13)  0.49163(12)  0.8247(7)   Bani  3.789928 Hg
   Hg34       1.0     0.68755(11)  0.72003(11)  0.8391(5)   Bani  2.972286 Hg
   Hg35       1.0     0.68004(10)  0.55829(10)  0.6535(5)   Bani  3.989952 Hg
   Hg36       1.0     0.67613(11)  0.40407(12)  0.6550(5)   Bani  2.614349 Hg
   Hg37       1.0     0.67528(10)  0.63316(10)  0.6550(5)   Bani  2.577502 Hg
   Hg38       1.0     0.64866(10)  0.88770(10)  0.7623(5)   Bani  2.747698 Hg
   Hg39       1.0     0.63813(11)  0.95849(11)  0.6622(5)   Bani  2.688041 Hg
   Hg40       1.0     0.63563(11)  0.79818(11)  0.8189(7)   Bani  3.360052 Hg
   Hg41       1.0     0.62378(11)  0.71305(12)  0.6630(5)   Bani  2.712606 Hg
   Hg42       1.0     0.61783(12)  0.57013(11)  0.8338(7)   Bani  2.938949 Hg
   Hg43       1.0     0.61495(9)   0.64364(10)  0.8466(5)   Bani  2.875783 Hg
   Hg44       1.0     0.57050(11)  0.95942(11)  0.8497(7)   Bani  4.414565 Hg
   Hg45       1.0     0.56471(11)  0.88305(11)  0.8002(7)   Bani  3.138973 Hg
   Hg46       1.0     0.55128(11)  0.71499(11)  0.7611(5)   Bani  2.861747 Hg
   Hg47       1.0     0.53747(11)  0.63894(10)  0.8431(5)   Bani  2.638913 Hg
   Hg48       1.0     0.49887(12)  0.89511(12)  0.6596(5)   Bani  2.982814 Hg
   Hg49       1.0     0.49018(12)  0.95129(11)  0.8370(5)   Bani  2.856483 Hg
   Hg50       1.0     0.47981(12)  0.73361(11)  0.8034(7)   Bani  3.351279 Hg
   Hg51       1.0     0.47568(12)  0.81082(11)  0.7631(5)   Bani  3.096863 Hg
   Hg52       1.0     0.46657(12)  0.65152(11)  0.6647(7)   Bani  3.067034 Hg
   Hg53       1.0     0.42179(10)  0.89032(9)   0.6537(5)   Bani  3.219684 Hg
   Hg54       1.0     0.41667(10)  0.96289(11)  0.6573(5)   Bani  2.507318 Hg
   Hg55       1.0     0.41136(11)  0.81954(12)  0.8455(5)   Bani  2.988078 Hg
   Hg56       1.0     0.40591(10)  0.66386(11)  0.8457(7)   Bani  4.351399 Hg
   Hg57       1.0     0.39757(12)  0.73393(12)  0.6750(7)   Bani  3.635524 Hg
   Hg58       1.0     0.93377(16)  0.47102(17)  0.500000    Bani  3.140727 Hg
   Hg59       1.0     0.89315(17)  0.51691(16)  0.500000    Bani  3.535511 Hg
   Hg60       1.0     0.87974(16)  0.77723(17)  0.500000    Bani  3.096863 Hg
   Hg61       1.0     0.84688(16)  0.42996(16)  0.500000    Bani  3.430236 Hg
   Hg62       1.0     0.84226(17)  0.82615(16)  0.500000    Bani  3.982934 Hg
   Hg63       1.0     0.82627(13)  0.63184(13)  0.500000    Bani  3.491647 Hg
   Hg64       1.0     0.79305(13)  0.73933(16)  0.500000    Bani  3.649560 Hg
   Hg65       1.0     0.78286(12)  0.94119(12)  0.500000    Bani  2.465208 Hg
   Hg66       1.0     0.64273(16)  0.84006(16)  0.500000    Bani  3.912750 Hg
   Hg67       1.0     0.61540(12)  0.64423(13)  0.500000    Bani  2.403797 Hg
   Hg68       1.0     0.60329(16)  0.88485(16)  0.500000    Bani  3.684652 Hg
   Hg69       1.0     0.59773(17)  0.75998(16)  0.500000    Bani  3.526739 Hg
   Hg70       1.0     0.57052(14)  0.95747(16)  0.500000    Bani  3.526739 Hg
   Hg71       1.0     0.52209(16)  0.84475(17)  0.500000    Bani  3.553058 Hg
   Hg72       1.0     0.51319(17)  0.72536(16)  0.500000    Bani  3.324960 Hg
   Hg73       1.0     0.4681(2)    0.7616(2)    0.500000    Bani  4.728637 Hg
   Hg74       1.0     0.41040(16)  0.66870(16)  0.500000    Bani  3.877658 Hg
   Hg75       1.0     0.98614(16)  0.91821(14)  0.000000    Bani  3.754836 Hg
   Hg76       1.0     0.97576(14)  0.51328(18)  0.000000    Bani  4.342626 Hg
   Hg77       1.0     0.97511(12)  0.69400(12)  0.000000    Bani  2.321331 Hg
   Hg78       1.0     0.9364(2)    0.55410(16)  0.000000    Bani  4.851459 Hg
   Hg79       1.0     0.92555(17)  0.42890(17)  0.000000    Bani  3.728517 Hg
   Hg80       1.0     0.91743(14)  0.81727(16)  0.000000    Bani  3.307414 Hg
   Hg81       1.0     0.89246(17)  0.87180(16)  0.000000    Bani  4.693545 Hg
   Hg82       1.0     0.87280(16)  0.73240(16)  0.000000    Bani  3.377598 Hg
   Hg83       1.0     0.8523(2)    0.51655(17)  0.000000    Bani  4.939188 Hg
   Hg84       1.0     0.84403(17)  0.3831(2)    0.000000    Bani  4.807594 Hg
   Hg85       1.0     0.81340(16)  0.43589(17)  0.000000    Bani  4.439129 Hg
   Hg86       1.0     0.80707(16)  0.82517(14)  0.000000    Bani  3.807474 Hg
   Hg87       1.0     0.79188(16)  0.69165(16)  0.000000    Bani  4.456675 Hg
   Hg88       1.0     0.76034(13)  0.74478(16)  0.000000    Bani  3.947842 Hg
   Hg89       0.4500  0.7560(4)    0.5604(4)    0.000000    Bani  2.561711 Hg
   Na1        0.5500  0.7560(4)    0.5604(4)    0.000000    Bani  2.596802 Na
   Hg90       1.0     0.75293(17)  0.48087(16)  0.000000    Bani  3.237230 Hg
   Hg91       1.0     0.69857(14)  0.79222(13)  0.000000    Bani  3.377598 Hg
   Hg92       1.0     0.67457(14)  0.55382(14)  0.000000    Bani  3.114408 Hg
   Hg93       1.0     0.60429(16)  0.84677(16)  0.000000    Bani  3.526739 Hg
   Hg94       1.0     0.55698(16)  0.76001(16)  0.000000    Bani  3.149500 Hg
   Hg95       1.0     0.51755(16)  0.80762(18)  0.000000    Bani  3.710971 Hg
   Hg96       1.0     0.42191(12)  0.89017(12)  0.000000    Bani  2.333613 Hg
   Hg97       1.0     0.333333     0.666667     0.8509(10)  Bani  3.474101 Hg
   Hg98       1.0     0.666667     0.333333     0.8469(10)  Bani  3.796946 Hg
   Hg99       1.0     0.000000     0.000000     0.6532(10)  Bani  3.467082 Hg
   Hg100      1.0     0.333333     0.666667     0.500000    Bani  4.395264 Hg
   Hg101      1.0     0.666667     0.333333     0.500000    Bani  2.428361 Hg
   Hg102      1.0     0.000000     0.000000     0.000000    Bani  4.181203 Hg
   Na2        1.0     0.8930(9)    0.4743(10)   0.800(4)    Bani  2.596802 Na
   Na3        1.0     0.8382(10)   0.7783(10)   0.801(4)    Bani  2.596802 Na
   Na4        1.0     0.5610(9)    0.8047(10)   0.695(4)    Bani  2.596802 Na
   Na5        1.0     0.9732(11)   0.8389(13)   0.500000    Bani  2.596802 Na
   Na6        1.0     0.9593(13)   0.6147(13)   0.500000    Bani  2.596802 Na
   Na7        1.0     0.9098(11)   0.7128(13)   0.500000    Bani  2.596802 Na
   Na8        1.0     0.9155(11)   0.9257(13)   0.500000    Bani  2.596802 Na
   Na9        1.0     0.8282(13)   0.5487(13)   0.500000    Bani  2.596802 Na
   Na10       1.0     0.7824(11)   0.8583(13)   0.500000    Bani  2.596802 Na
   Na11       1.0     0.7539(13)   0.4073(14)   0.500000    Bani  2.596802 Na
   Na12       1.0     0.7488(11)   0.6353(13)   0.500000    Bani  2.596802 Na
   Na13       1.0     0.7023(13)   0.9444(13)   0.500000    Bani  2.596802 Na
   Na14       1.0     0.7005(13)   0.7213(14)   0.500000    Bani  2.596802 Na
   Na15       1.0     0.6713(13)   0.4813(13)   0.500000    Bani  2.596802 Na
   Na16       1.0     0.6051(13)   0.5570(13)   0.500000    Bani  2.596802 Na
   Na17       1.0     0.5402(13)   0.6557(13)   0.500000    Bani  2.596802 Na
   Na18       1.0     0.4932(13)   0.9689(14)   0.500000    Bani  2.596802 Na
   Na19       1.0     0.4213(13)   0.8161(14)   0.500000    Bani  2.596802 Na
   Na20       1.0     0.9760(13)   0.7750(13)   0.000000    Bani  2.596802 Na
   Na21       1.0     0.8915(13)   0.6160(13)   0.000000    Bani  2.596802 Na
   Na22       1.0     0.8505(11)   0.9282(13)   0.000000    Bani  2.596802 Na
   Na23       1.0     0.6986(13)   0.8756(13)   0.000000    Bani  2.596802 Na
   Na24       1.0     0.6912(11)   0.6488(13)   0.000000    Bani  2.596802 Na
   Na25       1.0     0.6632(13)   0.4074(14)   0.000000    Bani  2.596802 Na
   Na26       1.0     0.6367(13)   0.9474(13)   0.000000    Bani  2.596802 Na
   Na27       1.0     0.6099(13)   0.7171(13)   0.000000    Bani  2.596802 Na
   Na28       1.0     0.4974(13)   0.8806(13)   0.000000    Bani  2.596802 Na
   Na29       1.0     0.4819(13)   0.6672(13)   0.000000    Bani  2.596802 Na
   Na30       1.0     0.4329(13)   0.9756(13)   0.000000    Bani  2.596802 Na
   Na31       1.0     0.4162(13)   0.7459(13)   0.000000    Bani  2.596802 Na

loop_
   _atom_site_aniso_label
   _atom_site_aniso_U_11
   _atom_site_aniso_U_22
   _atom_site_aniso_U_33
   _atom_site_aniso_U_12
   _atom_site_aniso_U_13
   _atom_site_aniso_U_23
   Hg1	 0.02530  0.03700  0.02500  0.01740  0.00040 -0.00160
   Hg2	 0.02800  0.03900  0.05000  0.01020  0.00420  0.00900
   Hg3	 0.04300  0.03450  0.08500  0.01930 -0.00200  0.00100
   Hg4	 0.03460  0.03640  0.04400  0.01880 -0.00270 -0.00270
   Hg5	 0.03400  0.03200  0.04100  0.01220  0.00690 -0.00090
   Hg6	 0.03500  0.04400  0.03800  0.02150  0.00000  0.00300
   Hg7	 0.03100  0.03400  0.04700  0.01390 -0.00400 -0.00300
   Hg8	 0.04500  0.05100  0.04700  0.01670  0.00600  0.00200
   Hg9	 0.03500  0.04500  0.03300  0.02500 -0.00130 -0.00140
   Hg10	 0.03200  0.04200  0.04900  0.02160  0.00570  0.00500
   Hg11	 0.04500  0.03100  0.03600  0.02110 -0.00100 -0.00550
   Hg12	 0.04300  0.03320  0.03500  0.02040 -0.00180 -0.00310
   Hg13	 0.04500  0.02640  0.04000  0.01680 -0.00320 -0.00140
   Hg14	 0.03300  0.03500  0.05200  0.01990 -0.00260 -0.00700
   Hg15	 0.04300  0.03800  0.03600  0.02660 -0.00540 -0.00320
   Hg16	 0.04500  0.04100  0.04000  0.02570  0.00310  0.00220
   Hg17	 0.04000  0.03300  0.05000  0.01970  0.00400  0.00100
   Hg18	 0.03900  0.06400  0.11600  0.02280  0.00800  0.03500
   Hg19	 0.03000  0.03500  0.05000  0.01590 -0.00700  0.00000
   Hg20	 0.03700  0.06500  0.05300  0.02600 -0.00400 -0.01600
   Hg21	 0.02830  0.03900  0.04200  0.01310  0.00360 -0.00210
   Hg22	 0.03900  0.03700  0.04600  0.01780 -0.00150 -0.00210
   Hg23	 0.04500  0.04700  0.04200  0.03100 -0.00300 -0.00200
   Hg24	 0.03400  0.03400  0.05300  0.01740 -0.00200 -0.00100
   Hg25	 0.04900  0.04900  0.04300  0.03310  0.00100  0.00000
   Hg26	 0.03750  0.03180  0.03900  0.00960  0.00020  0.00070
   Hg27	 0.03500  0.04100  0.06700  0.01400  0.00000  0.00200
   Hg28	 0.05400  0.04300  0.04900  0.03100 -0.00700 -0.00400
   Hg29	 0.03400  0.05000  0.04100  0.02400  0.00300  0.00600
   Hg30	 0.02960  0.02990  0.03200  0.01200  0.00120 -0.00220
   Hg31	 0.03600  0.04800  0.03000  0.02610 -0.00220  0.00300
   Hg32	 0.04800  0.04100  0.07900  0.02030  0.01800  0.00300
   Hg33	 0.04800  0.04400  0.04400  0.01700 -0.00300 -0.00200
   Hg34	 0.02930  0.04400  0.04000  0.01860 -0.00140  0.00100
   Hg35	 0.03730  0.03550  0.07200  0.01310  0.00200 -0.00100
   Hg36	 0.03400  0.03900  0.03200  0.02250  0.00100 -0.00100
   Hg37	 0.02620  0.03700  0.03100  0.01300  0.00120  0.00490
   Hg38	 0.02600  0.03600  0.03000  0.00620 -0.00060 -0.00140
   Hg39	 0.04000  0.03000  0.03000  0.01590  0.00040 -0.00110
   Hg40	 0.03800  0.04000  0.04900  0.01900  0.00500  0.00100
   Hg41	 0.03500  0.04400  0.03000  0.02420 -0.00570  0.00100
   Hg42	 0.03600  0.03600  0.03500  0.01450  0.00710  0.00330
   Hg43	 0.03390  0.03500  0.04100  0.01770 -0.00140 -0.00370
   Hg44	 0.03200  0.04300  0.09000  0.01670  0.00400  0.01500
   Hg45	 0.03100  0.03700  0.04900  0.01530 -0.00200 -0.00200
   Hg46	 0.04700  0.03800  0.02900  0.02520  0.00600  0.00440
   Hg47	 0.03600  0.02900  0.03800  0.01830  0.00100 -0.00410
   Hg48	 0.04900  0.04600  0.02800  0.03100 -0.00200 -0.00080
   Hg49	 0.04200  0.03400  0.03600  0.02160  0.00500  0.00000
   Hg50	 0.04000  0.03300  0.05800  0.02100 -0.00200  0.00100
   Hg51	 0.04100  0.05200  0.03100  0.02800  0.00190  0.00000
   Hg52	 0.03600  0.03200  0.04000  0.01060  0.00200  0.00200
   Hg53	 0.03900  0.03800  0.04700  0.02050 -0.00170 -0.00160
   Hg54	 0.02740  0.03200  0.03100  0.01120 -0.00110  0.00200
   Hg55	 0.03500  0.04600  0.03700  0.02360  0.00000  0.00000
   Hg56	 0.03200  0.05100  0.08400  0.02200  0.00000 -0.00100
   Hg57	 0.04000  0.04500  0.04000  0.01140  0.00500  0.00100
   Hg58	 0.03000  0.06000  0.03800  0.02900  0.00000  0.00000
   Hg59	 0.07400  0.04000  0.03700  0.04100  0.00000  0.00000
   Hg60	 0.03300  0.06100  0.03900  0.03500  0.00000  0.00000
   Hg61	 0.02900  0.04300  0.04100  0.00500  0.00000  0.00000
   Hg62	 0.07800  0.05100  0.04200  0.04700  0.00000  0.00000
   Hg63	 0.03000  0.03800  0.07000  0.02100  0.00000  0.00000
   Hg64	 0.02500  0.05600  0.03600  0.00400  0.00000  0.00000
   Hg65	 0.02600  0.02200  0.04700  0.01300  0.00000  0.00000
   Hg66	 0.03400  0.04000  0.05800  0.00600  0.00000  0.00000
   Hg67	 0.02200  0.02900  0.04600  0.01700  0.00000  0.00000
   Hg68	 0.04100  0.03300  0.05200  0.00800  0.00000  0.00000
   Hg69	 0.04800  0.03500  0.05400  0.02300  0.00000  0.00000
   Hg70	 0.02700  0.04800  0.05800  0.01800  0.00000  0.00000
   Hg71	 0.03700  0.06200  0.04300  0.03000  0.00000  0.00000
   Hg72	 0.04700  0.04300  0.04500  0.02900  0.00000  0.00000
   Hg73	 0.07100  0.06600  0.06500  0.05100  0.00000  0.00000
   Hg74	 0.04200  0.04800  0.06600  0.02900  0.00000  0.00000
   Hg75	 0.05200  0.04200  0.05600  0.02900  0.00000  0.00000
   Hg76	 0.03400  0.06800  0.05700  0.02100  0.00000  0.00000
   Hg77	 0.02600  0.02400  0.03700  0.01160  0.00000  0.00000
   Hg78	 0.09400  0.04200  0.05500  0.03900  0.00000  0.00000
   Hg79	 0.04800  0.05400  0.05100  0.03400  0.00000  0.00000
   Hg80	 0.03500  0.04500  0.04700  0.02100  0.00000  0.00000
   Hg81	 0.07200  0.05700  0.06500  0.04400  0.00000  0.00000
   Hg82	 0.04100  0.04100  0.05500  0.02700  0.00000  0.00000
   Hg83	 0.08400  0.04600  0.05700  0.03200  0.00000  0.00000
   Hg84	 0.04700  0.06800  0.06000  0.02300  0.00000  0.00000
   Hg85	 0.04800  0.06100  0.05000  0.02000  0.00000  0.00000
   Hg86	 0.06600  0.04500  0.04200  0.03400  0.00000  0.00000
   Hg87	 0.03900  0.04800  0.07200  0.01400  0.00000  0.00000
   Hg88	 0.03100  0.06300  0.04600  0.01600  0.00000  0.00000
   Hg89	 0.04000  0.03600  0.03200  0.02700  0.00000  0.00000
   Na1	 0.02600  0.04000  0.03200  0.01600  0.01300  0.01400
   Hg90	 0.04700  0.03400  0.04300  0.02100  0.00000  0.00000
   Hg91	 0.04500  0.03300  0.04700  0.01700  0.00000  0.00000
   Hg92	 0.03600  0.04200  0.04900  0.02600  0.00000  0.00000
   Hg93	 0.04000  0.04000  0.03400  0.00500  0.00000  0.00000
   Hg94	 0.05400  0.03500  0.03700  0.02700  0.00000  0.00000
   Hg95	 0.04200  0.06700  0.04500  0.03700  0.00000  0.00000
   Hg96	 0.02100  0.02800  0.04200  0.01400  0.00000  0.00000
   Hg97	 0.03600  0.03600  0.06000  0.01800  0.00000  0.00000
   Hg98	 0.04200  0.04200  0.06000  0.02080  0.00000  0.00000
   Hg99	 0.03600  0.03600  0.06000  0.01820  0.00000  0.00000
   Hg100	 0.04300  0.04300  0.08100  0.02150  0.00000  0.00000
   Hg101	 0.02700  0.02700  0.03800  0.01330  0.00000  0.00000
   Hg102	 0.04900  0.04900  0.06100  0.02460  0.00000  0.00000
   Na2	 0.02600  0.04000  0.03200  0.01600  0.01300  0.01400
   Na3	 0.02600  0.04000  0.03200  0.01600  0.01300  0.01400
   Na4	 0.02600  0.04000  0.03200  0.01600  0.01300  0.01400
   Na5	 0.02600  0.04000  0.03200  0.01600  0.01300  0.01400
   Na6	 0.02600  0.04000  0.03200  0.01600  0.01300  0.01400
   Na7	 0.02600  0.04000  0.03200  0.01600  0.01300  0.01400
   Na8	 0.02600  0.04000  0.03200  0.01600  0.01300  0.01400
   Na9	 0.02600  0.04000  0.03200  0.01600  0.01300  0.01400
   Na10	 0.02600  0.04000  0.03200  0.01600  0.01300  0.01400
   Na11	 0.02600  0.04000  0.03200  0.01600  0.01300  0.01400
   Na12	 0.02600  0.04000  0.03200  0.01600  0.01300  0.01400
   Na13	 0.02600  0.04000  0.03200  0.01600  0.01300  0.01400
   Na14	 0.02600  0.04000  0.03200  0.01600  0.01300  0.01400
   Na15	 0.02600  0.04000  0.03200  0.01600  0.01300  0.01400
   Na16	 0.02600  0.04000  0.03200  0.01600  0.01300  0.01400
   Na17	 0.02600  0.04000  0.03200  0.01600  0.01300  0.01400
   Na18	 0.02600  0.04000  0.03200  0.01600  0.01300  0.01400
   Na19	 0.02600  0.04000  0.03200  0.01600  0.01300  0.01400
   Na20	 0.02600  0.04000  0.03200  0.01600  0.01300  0.01400
   Na21	 0.02600  0.04000  0.03200  0.01600  0.01300  0.01400
   Na22	 0.02600  0.04000  0.03200  0.01600  0.01300  0.01400
   Na23	 0.02600  0.04000  0.03200  0.01600  0.01300  0.01400
   Na24	 0.02600  0.04000  0.03200  0.01600  0.01300  0.01400
   Na25	 0.02600  0.04000  0.03200  0.01600  0.01300  0.01400
   Na26	 0.02600  0.04000  0.03200  0.01600  0.01300  0.01400
   Na27	 0.02600  0.04000  0.03200  0.01600  0.01300  0.01400
   Na28	 0.02600  0.04000  0.03200  0.01600  0.01300  0.01400
   Na29	 0.02600  0.04000  0.03200  0.01600  0.01300  0.01400
   Na30	 0.02600  0.04000  0.03200  0.01600  0.01300  0.01400
   Na31	 0.02600  0.04000  0.03200  0.01600  0.01300  0.01400

#======================================================================
# CRYSTAL DATA
#----------------------------------------------------------------------
data_VESTA_phase_4

_chemical_name_common                  'Li2 O2'
_cell_length_a                         6.305000
_cell_length_b                         6.305000
_cell_length_c                         7.710000
_cell_angle_alpha                      90.000000
_cell_angle_beta                       90.000000
_cell_angle_gamma                      120.000000
_cell_volume                           265.433156
_space_group_name_H-M_alt              'P -6'
_space_group_IT_number                 174

loop_
_space_group_symop_operation_xyz
   'x, y, z'
   '-y, x-y, z'
   '-x+y, -x, z'
   'x, y, -z'
   '-y, x-y, -z'
   '-x+y, -x, -z'

loop_
   _atom_site_label
   _atom_site_occupancy
   _atom_site_fract_x
   _atom_site_fract_y
   _atom_site_fract_z
   _atom_site_adp_type
   _atom_site_B_iso_or_equiv
   _atom_site_type_symbol
   Li1        1.0     0.000000     0.000000     0.158000    Biso  ? Li
   Li2        1.0     0.666667     0.333333     0.342000    Biso  ? Li
   Li3        1.0     0.500000     0.500000     0.158000    Biso  ? Li
   Li4        1.0     0.166667     0.833333     0.342000    Biso  ? Li
   O1         1.0     0.000000     0.000000     0.417000    Biso  ? O
   O2         1.0     0.666667     0.333333     0.083000    Biso  ? O
   O3         1.0     0.500000     0.500000     0.417000    Biso  ? O
   O4         1.0     0.166667     0.833333     0.083000    Biso  ? O
