data_image0
_chemical_formula_structural       Cd4Br8N20C12H8O4H8C8H8
_chemical_formula_sum              "Cd4 Br8 N20 C20 H24 O4"
_cell_length_a       7.512
_cell_length_b       19.532
_cell_length_c       7.143
_cell_angle_alpha    90.0
_cell_angle_beta     90.0
_cell_angle_gamma    90.0

_space_group_name_H-M_alt    "P 1"
_space_group_IT_number       1

loop_
  _space_group_symop_operation_xyz
  'x, y, z'

loop_
  _atom_site_type_symbol
  _atom_site_label
  _atom_site_symmetry_multiplicity
  _atom_site_fract_x
  _atom_site_fract_y
  _atom_site_fract_z
  _atom_site_occupancy
  Cd  Cd1       1.0  0.26266  0.5  0.25  1.0000
  Cd  Cd2       1.0  0.73734  0.0  0.25  1.0000
  Cd  Cd3       1.0  0.76266  0.0  0.75  1.0000
  Cd  Cd4       1.0  0.23733999999999997  0.5  0.75  1.0000
  Br  Br1       1.0  0.49925999999999987  0.45242  0.9917400000000001  1.0000
  Br  Br2       1.0  0.5007400000000001  0.04758000000000001  0.9917400000000001  1.0000
  Br  Br3       1.0  0.49925999999999987  0.54758  0.50826  1.0000
  Br  Br4       1.0  0.5007400000000001  0.95242  0.50826  1.0000
  Br  Br5       1.0  0.9992599999999998  0.95242  0.49174  1.0000
  Br  Br6       1.0  0.0007400000000000738  0.54758  0.49174  1.0000
  Br  Br7       1.0  0.9992599999999998  0.04758000000000001  0.00826  1.0000
  Br  Br8       1.0  0.0007400000000000738  0.45242  0.00826  1.0000
  N   N1        1.0  0.267  0.39401  0.4054  1.0000
  N   N2        1.0  0.733  0.10598999999999997  0.4054  1.0000
  N   N3        1.0  0.267  0.60599  0.09460000000000002  1.0000
  N   N4        1.0  0.733  0.8940099999999999  0.09460000000000002  1.0000
  N   N5        1.0  0.767  0.8940099999999999  0.9054000000000001  1.0000
  N   N6        1.0  0.23299999999999998  0.60599  0.9054000000000001  1.0000
  N   N7        1.0  0.767  0.10598999999999997  0.5946  1.0000
  N   N8        1.0  0.23299999999999998  0.39401  0.5946  1.0000
  N   N9        1.0  0.309  0.18137  0.6451  1.0000
  N   N10       1.0  0.6910000000000001  0.31862999999999997  0.6451  1.0000
  N   N11       1.0  0.309  0.81863  0.8549  1.0000
  N   N12       1.0  0.6910000000000001  0.68137  0.8549  1.0000
  N   N13       1.0  0.8089999999999998  0.68137  0.14510000000000003  1.0000
  N   N14       1.0  0.19099999999999998  0.81863  0.14510000000000003  1.0000
  N   N15       1.0  0.8089999999999998  0.31862999999999997  0.3549  1.0000
  N   N16       1.0  0.19099999999999998  0.18137  0.3549  1.0000
  N   N17       1.0  0.24999999999999994  0.2885  0.5  1.0000
  N   N18       1.0  0.7499999999999999  0.2115  0.5  1.0000
  N   N19       1.0  0.24999999999999994  0.7115  0.0  1.0000
  N   N20       1.0  0.7499999999999999  0.7885  0.0  1.0000
  C   C1        1.0  0.24999999999999994  0.21629999999999996  0.5  1.0000
  C   C2        1.0  0.7499999999999999  0.28370000000000006  0.5  1.0000
  C   C3        1.0  0.24999999999999994  0.7837000000000001  0.0  1.0000
  C   C4        1.0  0.7499999999999999  0.7162999999999999  0.0  1.0000
  C   C5        1.0  0.2754999999999999  0.33043  0.3512  1.0000
  C   C6        1.0  0.7245  0.16957  0.3512  1.0000
  C   C7        1.0  0.2754999999999999  0.66957  0.1488  1.0000
  C   C8        1.0  0.7245  0.83043  0.1488  1.0000
  C   C9        1.0  0.7755  0.83043  0.8512  1.0000
  C   C10       1.0  0.2245  0.66957  0.8512  1.0000
  C   C11       1.0  0.7755  0.16957  0.6488  1.0000
  C   C12       1.0  0.2245  0.33043  0.6488  1.0000
  H   H1        1.0  0.2959  0.316  0.229  1.0000
  H   H2        1.0  0.7041  0.184  0.229  1.0000
  H   H3        1.0  0.2959  0.6839999999999999  0.271  1.0000
  H   H4        1.0  0.7041  0.8160000000000001  0.271  1.0000
  H   H5        1.0  0.7959  0.8160000000000001  0.729  1.0000
  H   H6        1.0  0.20409999999999998  0.6839999999999999  0.729  1.0000
  H   H7        1.0  0.7959  0.184  0.7710000000000001  1.0000
  H   H8        1.0  0.20409999999999998  0.316  0.7710000000000001  1.0000
  O   O1        1.0  0.4999999999999999  0.25  0.0062  1.0000
  O   O2        1.0  0.4999999999999999  0.75  0.4938  1.0000
  O   O3        1.0  0.0  0.75  0.5062  1.0000
  O   O4        1.0  0.0  0.25  0.9938000000000001  1.0000
  H   H9        1.0  0.584  0.285  0.935  1.0000
  H   H10       1.0  0.41600000000000004  0.21500000000000002  0.935  1.0000
  H   H11       1.0  0.584  0.7150000000000001  0.565  1.0000
  H   H12       1.0  0.41600000000000004  0.7849999999999999  0.565  1.0000
  H   H13       1.0  0.08400000000000007  0.7849999999999999  0.435  1.0000
  H   H14       1.0  0.916  0.7150000000000001  0.435  1.0000
  H   H15       1.0  0.08400000000000007  0.21500000000000002  0.065  1.0000
  H   H16       1.0  0.916  0.285  0.065  1.0000
  C   C13       1.0  0.2836999999999999  0.11707000000000001  0.5851  0.5300
  C   C14       1.0  0.7162999999999999  0.38293  0.5851  0.5300
  C   C15       1.0  0.2836999999999999  0.88293  0.9149  0.5300
  C   C16       1.0  0.7162999999999999  0.61707  0.9149  0.5300
  C   C17       1.0  0.7836999999999998  0.61707  0.08509999999999995  0.5300
  C   C18       1.0  0.21630000000000002  0.88293  0.08509999999999995  0.5300
  C   C19       1.0  0.7836999999999998  0.38293  0.4149000000000001  0.5300
  C   C20       1.0  0.21630000000000002  0.11707000000000001  0.4149000000000001  0.5300
  H   H17       1.0  0.311  0.083  0.655  1.0000
  H   H18       1.0  0.689  0.4169999999999999  0.655  1.0000
  H   H19       1.0  0.311  0.917  0.845  1.0000
  H   H20       1.0  0.689  0.583  0.845  1.0000
  H   H21       1.0  0.8109999999999999  0.583  0.15500000000000003  1.0000
  H   H22       1.0  0.189  0.917  0.15500000000000003  1.0000
  H   H23       1.0  0.8109999999999999  0.4169999999999999  0.345  1.0000
  H   H24       1.0  0.189  0.083  0.345  1.0000
  N   N21       1.0  0.2836999999999999  0.11707000000000001  0.5851  0.4700
  N   N22       1.0  0.7162999999999999  0.38293  0.5851  0.4700
  N   N23       1.0  0.2836999999999999  0.88293  0.9149  0.4700
  N   N24       1.0  0.7162999999999999  0.61707  0.9149  0.4700
  N   N25       1.0  0.7836999999999998  0.61707  0.08509999999999995  0.4700
  N   N26       1.0  0.21630000000000002  0.88293  0.08509999999999995  0.4700
  N   N27       1.0  0.7836999999999998  0.38293  0.4149000000000001  0.4700
  N   N28       1.0  0.21630000000000002  0.11707000000000001  0.4149000000000001  0.4700
