
#======================================================================
# CRYSTAL DATA
#----------------------------------------------------------------------
data_VESTA_phase_1

_chemical_name_common                  'O6 Se2 V1'
_cell_length_a                         11.22(6)
_cell_length_b                         11.22(6)
_cell_length_c                         7.86(4)
_cell_angle_alpha                      90.000000
_cell_angle_beta                       90.000000
_cell_angle_gamma                      90.000000
_cell_volume                           989.482888
_space_group_name_H-M_alt              'P 4 c c'
_space_group_IT_number                 103

loop_
_space_group_symop_operation_xyz
   'x, y, z'
   '-x, -y, z'
   '-y, x, z'
   'y, -x, z'
   'x, -y, z+1/2'
   '-x, y, z+1/2'
   '-y, -x, z+1/2'
   'y, x, z+1/2'

loop_
   _atom_site_label
   _atom_site_occupancy
   _atom_site_fract_x
   _atom_site_fract_y
   _atom_site_fract_z
   _atom_site_adp_type
   _atom_site_B_iso_or_equiv
   _atom_site_type_symbol
   Se1        1.0     0.10330(10)  0.24050(10)  0.000000    Biso  0.580000 Se
   Se2        1.0     0.36710(10)  0.28180(10)  0.1031(2)   Biso  0.540000 Se
   V1         1.0     0.000000     0.000000     0.1715(7)   Biso  0.410000 V
   V2         1.0     0.500000     0.500000     0.4274(5)   Biso  0.280000 V
   V3         1.0     0.000000     0.500000     0.0972(4)   Biso  0.460000 V
   O1         1.0     0.000000     0.000000     0.377(3)    Biso  1.170000 O
   O2         1.0     0.500000     0.500000     0.223(2)    Biso  0.890000 O
   O3         1.0     0.000000     0.500000     0.3910(10)  Biso  1.000000 O
   O4         1.0     0.1233(7)    0.1200(8)    0.1300(10)  Biso  0.690000 O
   O5         1.0     0.2546(7)    0.2550(7)    0.4400(10)  Biso  0.680000 O
   O6         1.0     0.0919(7)    0.3511(7)    0.1460(10)  Biso  0.810000 O
   O7         1.0     0.3271(7)    0.4759(7)    0.4680(10)  Biso  0.500000 O
   O8         1.0     0.4059(7)    0.1432(7)    0.1500(10)  Biso  0.930000 O
