
#======================================================================
# CRYSTAL DATA
#----------------------------------------------------------------------
data_VESTA_phase_1

_chemical_name_common                  'O5 V2'
_cell_length_a                         11.5030(10)
_cell_length_b                         4.369(5)
_cell_length_c                         3.557(5)
_cell_angle_alpha                      90.000000
_cell_angle_beta                       90.000000
_cell_angle_gamma                      90.000000
_cell_volume                           178.762749
_space_group_name_H-M_alt              'P m n 21'
_space_group_IT_number                 31

loop_
_space_group_symop_operation_xyz
   'x, y, z'
   '-x+1/2, -y, z+1/2'
   'x+1/2, -y, z+1/2'
   '-x, y, z'

loop_
   _atom_site_label
   _atom_site_occupancy
   _atom_site_fract_x
   _atom_site_fract_y
   _atom_site_fract_z
   _atom_site_adp_type
   _atom_site_B_iso_or_equiv
   _atom_site_type_symbol
   V1         1.0     0.148(3)     0.097(3)     0.000000    Biso  ? V
   O1         1.0     0.148(5)     0.450(10)    0.92(2)     Biso  ? O
   O2         1.0     0.200(5)     0.030(10)    0.46(2)     Biso  ? O
   O3         1.0     0.000000     0.08(2)      0.89(3)     Biso  ? O
