data_image0
_chemical_formula_structural       N16C8H8N8C16H24S8C8H16C8N16H8C8S8N8C8H16C8H24
_chemical_formula_sum              "N48 C64 H96 S16"
_cell_length_a       21.802
_cell_length_b       8.821
_cell_length_c       12.676
_cell_angle_alpha    90.0
_cell_angle_beta     90.0
_cell_angle_gamma    90.0

_space_group_name_H-M_alt    "P 1"
_space_group_IT_number       1

loop_
  _space_group_symop_operation_xyz
  'x, y, z'

loop_
  _atom_site_type_symbol
  _atom_site_label
  _atom_site_symmetry_multiplicity
  _atom_site_fract_x
  _atom_site_fract_y
  _atom_site_fract_z
  _atom_site_occupancy
  N   N1        1.0  0.68054  0.3933999999999999  0.2828  1.0000
  N   N2        1.0  0.31946  0.6066  0.2828  1.0000
  N   N3        1.0  0.18054000000000014  0.10660000000000003  0.2828  1.0000
  N   N4        1.0  0.81946  0.8933999999999999  0.2828  1.0000
  N   N5        1.0  0.18054000000000014  0.8933999999999999  0.7827999999999999  1.0000
  N   N6        1.0  0.81946  0.10660000000000003  0.7827999999999999  1.0000
  N   N7        1.0  0.68054  0.6066  0.7827999999999999  1.0000
  N   N8        1.0  0.31946  0.3933999999999999  0.7827999999999999  1.0000
  N   N9        1.0  0.7415900000000001  0.4286  0.2724  1.0000
  N   N10       1.0  0.2584099999999999  0.5714  0.2724  1.0000
  N   N11       1.0  0.24158999999999997  0.07140000000000002  0.2724  1.0000
  N   N12       1.0  0.75841  0.9285999999999999  0.2724  1.0000
  N   N13       1.0  0.24158999999999997  0.9285999999999999  0.7724000000000001  1.0000
  N   N14       1.0  0.75841  0.07140000000000002  0.7724000000000001  1.0000
  N   N15       1.0  0.7415900000000001  0.5714  0.7724000000000001  1.0000
  N   N16       1.0  0.2584099999999999  0.4286  0.7724000000000001  1.0000
  C   C1        1.0  0.7489600000000001  0.49339999999999995  0.1829  1.0000
  C   C2        1.0  0.25103999999999993  0.5065999999999999  0.1829  1.0000
  C   C3        1.0  0.2489600000000001  0.006600000000000049  0.1829  1.0000
  C   C4        1.0  0.75104  0.9934  0.1829  1.0000
  C   C5        1.0  0.2489600000000001  0.9934  0.6829000000000001  1.0000
  C   C6        1.0  0.75104  0.006600000000000049  0.6829000000000001  1.0000
  C   C7        1.0  0.7489600000000001  0.5065999999999999  0.6829000000000001  1.0000
  C   C8        1.0  0.25103999999999993  0.49339999999999995  0.6829000000000001  1.0000
  H   H1        1.0  0.7863  0.5288999999999999  0.1575  1.0000
  H   H2        1.0  0.2137  0.4711000000000001  0.1575  1.0000
  H   H3        1.0  0.2863  0.9711000000000001  0.1575  1.0000
  H   H4        1.0  0.7137000000000001  0.028899999999999926  0.1575  1.0000
  H   H5        1.0  0.2863  0.028899999999999926  0.6575  1.0000
  H   H6        1.0  0.7137000000000001  0.9711000000000001  0.6575  1.0000
  H   H7        1.0  0.7863  0.4711000000000001  0.6575  1.0000
  H   H8        1.0  0.2137  0.5288999999999999  0.6575  1.0000
  N   N17       1.0  0.6952  0.5031  0.1304  1.0000
  N   N18       1.0  0.30479999999999996  0.4969  0.1304  1.0000
  N   N19       1.0  0.19520000000000007  0.9969  0.1304  1.0000
  N   N20       1.0  0.8048000000000001  0.0030999999999998806  0.1304  1.0000
  N   N21       1.0  0.19520000000000007  0.0030999999999998806  0.6304000000000001  1.0000
  N   N22       1.0  0.8048000000000001  0.9969  0.6304000000000001  1.0000
  N   N23       1.0  0.6952  0.4969  0.6304000000000001  1.0000
  N   N24       1.0  0.30479999999999996  0.5031  0.6304000000000001  1.0000
  C   C9        1.0  0.65393  0.4389  0.1966  1.0000
  C   C10       1.0  0.34607  0.5610999999999999  0.1966  1.0000
  C   C11       1.0  0.1539299999999999  0.06109999999999999  0.1966  1.0000
  C   C12       1.0  0.84607  0.9389  0.1966  1.0000
  C   C13       1.0  0.1539299999999999  0.9389  0.6966000000000001  1.0000
  C   C14       1.0  0.84607  0.06109999999999999  0.6966000000000001  1.0000
  C   C15       1.0  0.65393  0.5610999999999999  0.6966000000000001  1.0000
  C   C16       1.0  0.34607  0.4389  0.6966000000000001  1.0000
  C   C17       1.0  0.6842  0.5691  0.0266  1.0000
  C   C18       1.0  0.31579999999999997  0.43089999999999995  0.0266  1.0000
  C   C19       1.0  0.18420000000000014  0.9309  0.0266  1.0000
  C   C20       1.0  0.8158000000000001  0.06910000000000016  0.0266  1.0000
  C   C21       1.0  0.18420000000000014  0.06910000000000016  0.5266  1.0000
  C   C22       1.0  0.8158000000000001  0.9309  0.5266  1.0000
  C   C23       1.0  0.6842  0.43089999999999995  0.5266  1.0000
  C   C24       1.0  0.31579999999999997  0.5691  0.5266  1.0000
  H   H9        1.0  0.6478  0.5259  0.9968000000000001  1.0000
  H   H10       1.0  0.35219999999999996  0.4740999999999999  0.9968000000000001  1.0000
  H   H11       1.0  0.14780000000000015  0.9741  0.9968000000000001  1.0000
  H   H12       1.0  0.8522  0.025900000000000034  0.9968000000000001  1.0000
  H   H13       1.0  0.14780000000000015  0.025900000000000034  0.4968000000000001  1.0000
  H   H14       1.0  0.8522  0.9741  0.4968000000000001  1.0000
  H   H15       1.0  0.6478  0.4740999999999999  0.4968000000000001  1.0000
  H   H16       1.0  0.35219999999999996  0.5259  0.4968000000000001  1.0000
  H   H17       1.0  0.7185  0.548  0.9815  1.0000
  H   H18       1.0  0.2815  0.45199999999999996  0.9815  1.0000
  H   H19       1.0  0.21850000000000014  0.952  0.9815  1.0000
  H   H20       1.0  0.7815000000000001  0.048000000000000036  0.9815  1.0000
  H   H21       1.0  0.21850000000000014  0.048000000000000036  0.4815  1.0000
  H   H22       1.0  0.7815000000000001  0.952  0.4815  1.0000
  H   H23       1.0  0.7185  0.45199999999999996  0.4815  1.0000
  H   H24       1.0  0.2815  0.548  0.4815  1.0000
  H   H25       1.0  0.6792  0.6768  0.0333  1.0000
  H   H26       1.0  0.3208  0.32320000000000004  0.0333  1.0000
  H   H27       1.0  0.17920000000000003  0.8232  0.0333  1.0000
  H   H28       1.0  0.8208  0.17680000000000007  0.0333  1.0000
  H   H29       1.0  0.17920000000000003  0.17680000000000007  0.5333  1.0000
  H   H30       1.0  0.8208  0.8232  0.5333  1.0000
  H   H31       1.0  0.6792  0.32320000000000004  0.5333  1.0000
  H   H32       1.0  0.3208  0.6768  0.5333  1.0000
  S   S1        1.0  0.57555  0.42132  0.17094000000000004  1.0000
  S   S2        1.0  0.42445  0.5786800000000001  0.17094000000000004  1.0000
  S   S3        1.0  0.07555  0.07868000000000001  0.17094000000000004  1.0000
  S   S4        1.0  0.9244500000000001  0.9213199999999999  0.17094000000000004  1.0000
  S   S5        1.0  0.07555  0.9213199999999999  0.6709400000000001  1.0000
  S   S6        1.0  0.9244500000000001  0.07868000000000001  0.6709400000000001  1.0000
  S   S7        1.0  0.57555  0.5786800000000001  0.6709400000000001  1.0000
  S   S8        1.0  0.42445  0.42132  0.6709400000000001  1.0000
  C   C25       1.0  0.57433  0.22209999999999996  0.1309  1.0000
  C   C26       1.0  0.42567  0.7779  0.1309  1.0000
  C   C27       1.0  0.07433000000000001  0.27790000000000004  0.1309  1.0000
  C   C28       1.0  0.92567  0.7221  0.1309  1.0000
  C   C29       1.0  0.07433000000000001  0.7221  0.6309  1.0000
  C   C30       1.0  0.92567  0.27790000000000004  0.6309  1.0000
  C   C31       1.0  0.57433  0.7779  0.6309  1.0000
  C   C32       1.0  0.42567  0.22209999999999996  0.6309  1.0000
  H   H33       1.0  0.5989  0.16359999999999994  0.1799  1.0000
  H   H34       1.0  0.4011  0.8364  0.1799  1.0000
  H   H35       1.0  0.0989  0.33640000000000003  0.1799  1.0000
  H   H36       1.0  0.9011  0.6636  0.1799  1.0000
  H   H37       1.0  0.0989  0.6636  0.6799  1.0000
  H   H38       1.0  0.9011  0.33640000000000003  0.6799  1.0000
  H   H39       1.0  0.5989  0.8364  0.6799  1.0000
  H   H40       1.0  0.4011  0.16359999999999994  0.6799  1.0000
  H   H41       1.0  0.5325  0.18479999999999994  0.13480000000000003  1.0000
  H   H42       1.0  0.4675  0.8152  0.13480000000000003  1.0000
  H   H43       1.0  0.03249999999999997  0.3152  0.13480000000000003  1.0000
  H   H44       1.0  0.9675  0.6847999999999999  0.13480000000000003  1.0000
  H   H45       1.0  0.03249999999999997  0.6847999999999999  0.6348  1.0000
  H   H46       1.0  0.9675  0.3152  0.6348  1.0000
  H   H47       1.0  0.5325  0.8152  0.6348  1.0000
  H   H48       1.0  0.4675  0.18479999999999994  0.6348  1.0000
  C   C33       1.0  0.59788  0.19849999999999995  0.0229  1.0000
  C   C34       1.0  0.40212000000000003  0.8015  0.0229  1.0000
  C   C35       1.0  0.09787999999999998  0.3015  0.0229  1.0000
  C   C36       1.0  0.90212  0.6985  0.0229  1.0000
  C   C37       1.0  0.09787999999999998  0.6985  0.5229  1.0000
  C   C38       1.0  0.90212  0.3015  0.5229  1.0000
  C   C39       1.0  0.59788  0.8015  0.5229  1.0000
  C   C40       1.0  0.40212000000000003  0.19849999999999995  0.5229  1.0000
  N   N25       1.0  0.6529  0.1487  0.0026  1.0000
  N   N26       1.0  0.3471  0.8513  0.0026  1.0000
  N   N27       1.0  0.15290000000000004  0.3513  0.0026  1.0000
  N   N28       1.0  0.8471  0.6487  0.0026  1.0000
  N   N29       1.0  0.15290000000000004  0.6487  0.5026  1.0000
  N   N30       1.0  0.8471  0.3513  0.5026  1.0000
  N   N31       1.0  0.6529  0.8513  0.5026  1.0000
  N   N32       1.0  0.3471  0.1487  0.5026  1.0000
  N   N33       1.0  0.65528  0.1451  0.8946  1.0000
  N   N34       1.0  0.34472  0.8549  0.8946  1.0000
  N   N35       1.0  0.15527999999999986  0.3549  0.8946  1.0000
  N   N36       1.0  0.84472  0.6451  0.8946  1.0000
  N   N37       1.0  0.15527999999999986  0.6451  0.39460000000000006  1.0000
  N   N38       1.0  0.84472  0.3549  0.39460000000000006  1.0000
  N   N39       1.0  0.65528  0.8549  0.39460000000000006  1.0000
  N   N40       1.0  0.34472  0.1451  0.39460000000000006  1.0000
  H   H49       1.0  0.687  0.1164  0.8597  1.0000
  H   H50       1.0  0.313  0.8835999999999999  0.8597  1.0000
  H   H51       1.0  0.18700000000000006  0.3836  0.8597  1.0000
  H   H52       1.0  0.8130000000000001  0.6164  0.8597  1.0000
  H   H53       1.0  0.18700000000000006  0.6164  0.3597000000000001  1.0000
  H   H54       1.0  0.8130000000000001  0.3836  0.3597000000000001  1.0000
  H   H55       1.0  0.687  0.8835999999999999  0.3597000000000001  1.0000
  H   H56       1.0  0.313  0.1164  0.3597000000000001  1.0000
  C   C41       1.0  0.6030200000000001  0.1912  0.8489000000000001  1.0000
  C   C42       1.0  0.3969799999999999  0.8088  0.8489000000000001  1.0000
  C   C43       1.0  0.10302000000000013  0.30879999999999996  0.8489000000000001  1.0000
  C   C44       1.0  0.8969799999999999  0.6911999999999999  0.8489000000000001  1.0000
  C   C45       1.0  0.10302000000000013  0.6911999999999999  0.34890000000000004  1.0000
  C   C46       1.0  0.8969799999999999  0.30879999999999996  0.34890000000000004  1.0000
  C   C47       1.0  0.6030200000000001  0.8088  0.34890000000000004  1.0000
  C   C48       1.0  0.3969799999999999  0.1912  0.34890000000000004  1.0000
  S   S9        1.0  0.58761  0.19565999999999995  0.71982  1.0000
  S   S10       1.0  0.41239000000000003  0.8043399999999999  0.71982  1.0000
  S   S11       1.0  0.08760999999999997  0.30434000000000005  0.71982  1.0000
  S   S12       1.0  0.9123900000000001  0.69566  0.71982  1.0000
  S   S13       1.0  0.08760999999999997  0.69566  0.21982000000000002  1.0000
  S   S14       1.0  0.9123900000000001  0.30434000000000005  0.21982000000000002  1.0000
  S   S15       1.0  0.58761  0.8043399999999999  0.21982000000000002  1.0000
  S   S16       1.0  0.41239000000000003  0.19565999999999995  0.21982000000000002  1.0000
  N   N41       1.0  0.56611  0.2272  0.9319  1.0000
  N   N42       1.0  0.43389000000000005  0.7727999999999999  0.9319  1.0000
  N   N43       1.0  0.06611000000000011  0.27279999999999993  0.9319  1.0000
  N   N44       1.0  0.93389  0.7272000000000001  0.9319  1.0000
  N   N45       1.0  0.06611000000000011  0.7272000000000001  0.4319  1.0000
  N   N46       1.0  0.93389  0.27279999999999993  0.4319  1.0000
  N   N47       1.0  0.56611  0.7727999999999999  0.4319  1.0000
  N   N48       1.0  0.43389000000000005  0.2272  0.4319  1.0000
  C   C49       1.0  0.50399  0.2901  0.9217  1.0000
  C   C50       1.0  0.49601  0.7099  0.9217  1.0000
  C   C51       1.0  0.003989999999999938  0.20989999999999998  0.9217  1.0000
  C   C52       1.0  0.99601  0.7901  0.9217  1.0000
  C   C53       1.0  0.003989999999999938  0.7901  0.4217  1.0000
  C   C54       1.0  0.99601  0.20989999999999998  0.4217  1.0000
  C   C55       1.0  0.50399  0.7099  0.4217  1.0000
  C   C56       1.0  0.49601  0.2901  0.4217  1.0000
  H   H57       1.0  0.502  0.3509  0.8581  1.0000
  H   H58       1.0  0.498  0.6491  0.8581  1.0000
  H   H59       1.0  0.0020000000000000018  0.14909999999999998  0.8581  1.0000
  H   H60       1.0  0.9980000000000001  0.8509  0.8581  1.0000
  H   H61       1.0  0.0020000000000000018  0.8509  0.35810000000000003  1.0000
  H   H62       1.0  0.9980000000000001  0.14909999999999998  0.35810000000000003  1.0000
  H   H63       1.0  0.502  0.6491  0.35810000000000003  1.0000
  H   H64       1.0  0.498  0.3509  0.35810000000000003  1.0000
  H   H65       1.0  0.4962  0.3566  0.9812000000000001  1.0000
  H   H66       1.0  0.5038  0.6434  0.9812000000000001  1.0000
  H   H67       1.0  0.9962  0.14340000000000003  0.9812000000000001  1.0000
  H   H68       1.0  0.003800000000000026  0.8565999999999999  0.9812000000000001  1.0000
  H   H69       1.0  0.9962  0.8565999999999999  0.48120000000000007  1.0000
  H   H70       1.0  0.003800000000000026  0.14340000000000003  0.48120000000000007  1.0000
  H   H71       1.0  0.4962  0.6434  0.48120000000000007  1.0000
  H   H72       1.0  0.5038  0.3566  0.48120000000000007  1.0000
  C   C57       1.0  0.45486  0.1726  0.9174000000000001  1.0000
  C   C58       1.0  0.54514  0.8274  0.9174000000000001  1.0000
  C   C59       1.0  0.95486  0.3274  0.9174000000000001  1.0000
  C   C60       1.0  0.04514000000000001  0.6725999999999999  0.9174000000000001  1.0000
  C   C61       1.0  0.95486  0.6725999999999999  0.4174  1.0000
  C   C62       1.0  0.04514000000000001  0.3274  0.4174  1.0000
  C   C63       1.0  0.45486  0.8274  0.4174  1.0000
  C   C64       1.0  0.54514  0.1726  0.4174  1.0000
  H   H73       1.0  0.46370000000000006  0.102  0.8618  1.0000
  H   H74       1.0  0.5363  0.898  0.8618  1.0000
  H   H75       1.0  0.9637  0.398  0.8618  1.0000
  H   H76       1.0  0.03629999999999995  0.602  0.8618  1.0000
  H   H77       1.0  0.9637  0.602  0.36180000000000007  1.0000
  H   H78       1.0  0.03629999999999995  0.398  0.36180000000000007  1.0000
  H   H79       1.0  0.46370000000000006  0.898  0.36180000000000007  1.0000
  H   H80       1.0  0.5363  0.102  0.36180000000000007  1.0000
  H   H81       1.0  0.4161  0.22049999999999995  0.9041  1.0000
  H   H82       1.0  0.5839  0.7795  0.9041  1.0000
  H   H83       1.0  0.9161  0.2795  0.9041  1.0000
  H   H84       1.0  0.08389999999999997  0.7204999999999999  0.9041  1.0000
  H   H85       1.0  0.9161  0.7204999999999999  0.4041  1.0000
  H   H86       1.0  0.08389999999999997  0.2795  0.4041  1.0000
  H   H87       1.0  0.4161  0.7795  0.4041  1.0000
  H   H88       1.0  0.5839  0.22049999999999995  0.4041  1.0000
  H   H89       1.0  0.4531  0.11979999999999999  0.9835  1.0000
  H   H90       1.0  0.5468999999999999  0.8801999999999999  0.9835  1.0000
  H   H91       1.0  0.9531000000000001  0.3802  0.9835  1.0000
  H   H92       1.0  0.046900000000000004  0.6198  0.9835  1.0000
  H   H93       1.0  0.9531000000000001  0.6198  0.48350000000000004  1.0000
  H   H94       1.0  0.046900000000000004  0.3802  0.48350000000000004  1.0000
  H   H95       1.0  0.4531  0.8801999999999999  0.48350000000000004  1.0000
  H   H96       1.0  0.5468999999999999  0.11979999999999999  0.48350000000000004  1.0000
