
#======================================================================
# CRYSTAL DATA
#----------------------------------------------------------------------
data_VESTA_phase_1

_chemical_name_common                  'Na3 O15 Si6 Y'
_cell_length_a                         10.468(2)
_cell_length_b                         15.2470(10)
_cell_length_c                         8.3850(10)
_cell_angle_alpha                      90.000000
_cell_angle_beta                       90.000000
_cell_angle_gamma                      90.000000
_cell_volume                           1338.292989
_space_group_name_H-M_alt              'I b m m'
_space_group_IT_number                 74

loop_
_space_group_symop_operation_xyz
   'x, y, z'
   '-x, -y, -z'
   'x, -y, -z+1/2'
   '-x, y, z+1/2'
   '-x, -y, z+1/2'
   'x, y, -z+1/2'
   '-x, y, -z'
   'x, -y, z'
   'x+1/2, y+1/2, z+1/2'
   '-x+1/2, -y+1/2, -z+1/2'
   'x+1/2, -y+1/2, -z'
   '-x+1/2, y+1/2, z'
   '-x+1/2, -y+1/2, z'
   'x+1/2, y+1/2, -z'
   '-x+1/2, y+1/2, -z+1/2'
   'x+1/2, -y+1/2, z+1/2'

loop_
   _atom_site_label
   _atom_site_occupancy
   _atom_site_fract_x
   _atom_site_fract_y
   _atom_site_fract_z
   _atom_site_adp_type
   _atom_site_U_iso_or_equiv
   _atom_site_type_symbol
   Y          1.0     0.250000     0.250000     0.250000    Uiso  ? Y
   Si(1)      1.0    -0.03353(8)   0.40244(6)   0.250000    Uiso  ? Si
   Si(2)      1.0    -0.28438(6)   0.40016(5)   0.42866(8)  Uiso  ? Si
   Na(1)      1.0     0.500000     0.24005(9)   0.000000    Uiso  ? Na
   Na(2)      1.0     0.4227(4)    0.4606(4)    0.250000    Uiso  ? Na
   O(1)       1.0     0.3481(2)    0.38768(18)  0.750000    Uiso  ? O
   O(2)       1.0     0.4338(2)    0.17522(16)  0.250000    Uiso  ? O
   O(3)       1.0     0.62972(16)  0.10678(12)  0.0952(2)   Uiso  ? O
   O(4)       1.0     0.3210(2)    0.500000    -0.0135(4)   Uiso  ? O
   O(5)       1.0     0.16320(17)  0.16573(13)  0.0573(2)   Uiso  ? O
   O(6)       1.0     0.4715(4)    0.000000     0.250000    Uiso  ? O
