data_image0
_chemical_formula_structural       Dy4O24C28H8C4H4C4
_chemical_formula_sum              "Dy4 O24 C36 H12"
_cell_length_a       10.3087
_cell_length_b       10.3087
_cell_length_c       13.967
_cell_angle_alpha    90.0
_cell_angle_beta     90.0
_cell_angle_gamma    90.0

_space_group_name_H-M_alt    "P 1"
_space_group_IT_number       1

loop_
  _space_group_symop_operation_xyz
  'x, y, z'

loop_
  _atom_site_type_symbol
  _atom_site_label
  _atom_site_symmetry_multiplicity
  _atom_site_fract_x
  _atom_site_fract_y
  _atom_site_fract_z
  _atom_site_occupancy
  Dy  Dy1       1.0  0.37451  0.37451  0.125  1.0000
  Dy  Dy2       1.0  0.62549  0.62549  0.625  1.0000
  Dy  Dy3       1.0  0.62549  0.37451  0.875  1.0000
  Dy  Dy4       1.0  0.37451  0.62549  0.375  1.0000
  O   O1        1.0  0.4182  0.2376  0.2518  1.0000
  O   O2        1.0  0.5818  0.7624  0.7518  1.0000
  O   O3        1.0  0.7624  0.4182  0.0018000000000000236  1.0000
  O   O4        1.0  0.2376  0.5818  0.5018  1.0000
  O   O5        1.0  0.5818  0.2376  0.7482  1.0000
  O   O6        1.0  0.4182  0.7624  0.24819999999999998  1.0000
  O   O7        1.0  0.2376  0.4182  0.9982  1.0000
  O   O8        1.0  0.7624  0.5818  0.4982  1.0000
  O   O9        1.0  0.4174  0.8156  0.4471  1.0000
  O   O10       1.0  0.5826  0.1844  0.9470999999999999  1.0000
  O   O11       1.0  0.1844  0.4174  0.19710000000000005  1.0000
  O   O12       1.0  0.8156  0.5826  0.6971  1.0000
  O   O13       1.0  0.5826  0.8156  0.5529  1.0000
  O   O14       1.0  0.4174  0.1844  0.0529  1.0000
  O   O15       1.0  0.8156  0.4174  0.8028999999999998  1.0000
  O   O16       1.0  0.1844  0.5826  0.3029  1.0000
  O   O17       1.0  0.40879999999999994  0.414  0.3351  1.0000
  O   O18       1.0  0.5912000000000001  0.5860000000000001  0.8350999999999998  1.0000
  O   O19       1.0  0.5860000000000001  0.40879999999999994  0.08509999999999995  1.0000
  O   O20       1.0  0.414  0.5912000000000001  0.5851  1.0000
  O   O21       1.0  0.5912000000000001  0.414  0.6649  1.0000
  O   O22       1.0  0.40879999999999994  0.5860000000000001  0.16489999999999996  1.0000
  O   O23       1.0  0.414  0.40879999999999994  0.9149  1.0000
  O   O24       1.0  0.5860000000000001  0.5912000000000001  0.4149  1.0000
  C   C1        1.0  0.42600000000000005  0.2933  0.3287999999999999  1.0000
  C   C2        1.0  0.574  0.7067  0.8288  1.0000
  C   C3        1.0  0.7067  0.42600000000000005  0.07879999999999998  1.0000
  C   C4        1.0  0.2933  0.574  0.5788  1.0000
  C   C5        1.0  0.574  0.2933  0.6712  1.0000
  C   C6        1.0  0.42600000000000005  0.7067  0.17120000000000007  1.0000
  C   C7        1.0  0.2933  0.42600000000000005  0.9212  1.0000
  C   C8        1.0  0.7067  0.574  0.4212000000000001  1.0000
  C   C9        1.0  0.4632  0.21959999999999996  0.4187  1.0000
  C   C10       1.0  0.5367999999999999  0.7804  0.9187000000000001  1.0000
  C   C11       1.0  0.7804  0.4632  0.16870000000000007  1.0000
  C   C12       1.0  0.21959999999999996  0.5367999999999999  0.6687000000000001  1.0000
  C   C13       1.0  0.5367999999999999  0.21959999999999996  0.5812999999999999  1.0000
  C   C14       1.0  0.4632  0.7804  0.08129999999999997  1.0000
  C   C15       1.0  0.21959999999999996  0.4632  0.8312999999999998  1.0000
  C   C16       1.0  0.7804  0.5367999999999999  0.3313  1.0000
  C   C17       1.0  0.5  0.0173  0.5  1.0000
  C   C18       1.0  0.5  0.9827  0.0  1.0000
  C   C19       1.0  0.9827  0.5  0.25  1.0000
  C   C20       1.0  0.0173  0.5  0.75  1.0000
  C   C21       1.0  0.4617  0.084  0.4179  1.0000
  C   C22       1.0  0.5383  0.916  0.9178999999999999  1.0000
  C   C23       1.0  0.916  0.4617  0.1678999999999999  1.0000
  C   C24       1.0  0.084  0.5383  0.6678999999999999  1.0000
  C   C25       1.0  0.5383  0.084  0.5821000000000001  1.0000
  C   C26       1.0  0.4617  0.916  0.0821  1.0000
  C   C27       1.0  0.084  0.4617  0.8321000000000001  1.0000
  C   C28       1.0  0.916  0.5383  0.3321  1.0000
  H   H1        1.0  0.4356  0.039  0.3635  1.0000
  H   H2        1.0  0.5644  0.961  0.8634999999999999  1.0000
  H   H3        1.0  0.961  0.4356  0.11349999999999993  1.0000
  H   H4        1.0  0.039  0.5644  0.6134999999999999  1.0000
  H   H5        1.0  0.5644  0.039  0.6365000000000001  1.0000
  H   H6        1.0  0.4356  0.961  0.1365  1.0000
  H   H7        1.0  0.039  0.4356  0.8865000000000001  1.0000
  H   H8        1.0  0.961  0.5644  0.3865  1.0000
  C   C29       1.0  0.5  0.2853  0.5  1.0000
  C   C30       1.0  0.5  0.7147  0.0  1.0000
  C   C31       1.0  0.7147  0.5  0.25  1.0000
  C   C32       1.0  0.2853  0.5  0.75  1.0000
  H   H9        1.0  0.5  0.3755  0.5  1.0000
  H   H10       1.0  0.5  0.6245  0.0  1.0000
  H   H11       1.0  0.6245  0.5  0.25  1.0000
  H   H12       1.0  0.3755  0.5  0.75  1.0000
  C   C33       1.0  0.5  0.8717  0.5  1.0000
  C   C34       1.0  0.5  0.1283  0.0  1.0000
  C   C35       1.0  0.1283  0.5  0.25  1.0000
  C   C36       1.0  0.8717  0.5  0.75  1.0000
