
#======================================================================
# CRYSTAL DATA
#----------------------------------------------------------------------
data_VESTA_phase_1

_chemical_name_common                  'Se8'
_cell_length_a                         15.0180(10)
_cell_length_b                         14.7130(10)
_cell_length_c                         8.7890(10)
_cell_angle_alpha                      90.000000
_cell_angle_beta                       93.610(10)
_cell_angle_gamma                      90.000000
_cell_volume                           1938.162439
_space_group_name_H-M_alt              'P 21/c'
_space_group_IT_number                 14

loop_
_space_group_symop_operation_xyz
   'x, y, z'
   '-x, -y, -z'
   '-x, y+1/2, -z+1/2'
   'x, -y+1/2, z+1/2'

loop_
   _atom_site_label
   _atom_site_occupancy
   _atom_site_fract_x
   _atom_site_fract_y
   _atom_site_fract_z
   _atom_site_adp_type
   _atom_site_B_iso_or_equiv
   _atom_site_type_symbol
   Se1        1.0     0.18313(10)  0.14063(10)  0.03451(18) Biso  ? Se
   Se2        1.0     0.22865(10)  0.28408(10)  0.12262(18) Biso  ? Se
   Se3        1.0     0.35548(11)  0.31907(11) -0.0055(2)   Biso  ? Se
   Se4        1.0     0.47826(10)  0.28776(10)  0.1613(2)   Biso  ? Se
   Se5        1.0     0.52853(10)  0.14438(10)  0.0935(2)   Biso  ? Se
   Se6        1.0     0.47966(10)  0.04033(10)  0.2710(2)   Biso  ? Se
   Se7        1.0     0.35296(10) -0.02818(10)  0.1512(2)   Biso  ? Se
   Se8        1.0     0.22521(10)  0.04261(10)  0.23430(18) Biso  ? Se
   Se9        1.0     0.09552(11)  0.48601(11)  0.1421(3)   Biso  ? Se
   Se10       1.0     0.01298(11)  0.5888(11)   0.2781(2)   Biso  ? Se
   Se11       1.0    -0.01931(10)  0.71476(12)  0.1213(3)   Biso  ? Se
   Se12       1.0     0.08347(11)  0.82945(10)  0.1855(2)   Biso  ? Se
   Se13       1.0     0.19177(11)  0.81338(10)  0.0096(2)   Biso  ? Se
   Se14       1.0     0.31020(10)  0.73961(10)  0.1440(2)   Biso  ? Se
   Se15       1.0     0.30834(10)  0.59137(11)  0.0478(2)   Biso  ? Se
   Se16       1.0     0.24353(11)  0.50553(10)  0.2335(2)   Biso  ? Se
