
#======================================================================
# CRYSTAL DATA
#----------------------------------------------------------------------
data_VESTA_phase_1

_chemical_name_common                  'S11'
_cell_length_a                         14.933(10)
_cell_length_b                         8.321(5)
_cell_length_c                         18.086(12)
_cell_angle_alpha                      90.000000
_cell_angle_beta                       90.000000
_cell_angle_gamma                      90.000000
_cell_volume                           2247.321042
_space_group_name_H-M_alt              'P c a 21'
_space_group_IT_number                 29

loop_
_space_group_symop_operation_xyz
   'x, y, z'
   '-x, -y, z+1/2'
   'x+1/2, -y, z'
   '-x+1/2, y, z+1/2'

loop_
   _atom_site_label
   _atom_site_occupancy
   _atom_site_fract_x
   _atom_site_fract_y
   _atom_site_fract_z
   _atom_site_adp_type
   _atom_site_B_iso_or_equiv
   _atom_site_type_symbol
   S1         1.0     0.42170(10)  0.4503(2)    0.140800    Bani  2.121307 S
   S2         1.0     0.33790(10)  0.4783(4)    0.22810(10) Bani  2.187104 S
   S3         1.0     0.21390(10)  0.4010(2)    0.19170(10) Bani  1.992344 S
   S4         1.0     0.17090(10)  0.5759(2)    0.12030(10) Bani  2.129203 S
   S5         1.0     0.11930(10)  0.7620(2)    0.18340(10) Bani  2.416079 S
   S6         1.0     0.19830(10)  0.9573(4)    0.16440(10) Bani  2.658213 S
   S7         1.0     0.27590(10)  0.9915(4)    0.26070(10) Bani  2.984568 S
   S8         1.0     0.40050(10)  0.0554(4)    0.22520(10) Bani  2.339754 S
   S9         1.0     0.48210(10)  0.8568(4)    0.23100(10) Bani  2.445030 S
   S10        1.0     0.51590(10)  0.8002(4)    0.12450(10) Bani  2.339754 S
   S11        1.0     0.41140(10)  0.6640(2)    0.08520(10) Bani  2.081829 S
   S12        1.0     0.67180(10)  0.0536(2)    0.46950(10) Bani  2.173945 S
   S13        1.0     0.58450(10)  0.0201(4)    0.38260(10) Bani  2.163417 S
   S14        1.0     0.46150(10)  0.0914(2)    0.42260(10) Bani  2.221319 S
   S15        1.0     0.42210(10)  0.9139(2)    0.49340(10) Bani  2.105516 S
   S16        1.0     0.37120(10)  0.7285(2)    0.42920(10) Bani  2.418711 S
   S17        1.0     0.44920(10)  0.5315(2)    0.44740(10) Bani  2.710851 S
   S18        1.0     0.52740(10)  0.4959(4)    0.35380(10) Bani  2.645054 S
   S19        1.0     0.65340(10)  0.4415(2)    0.38780(10) Bani  2.008136 S
   S20        1.0     0.73060(10)  0.6467(2)    0.38260(10) Bani  2.268693 S
   S21        1.0     0.76500(10)  0.7041(4)    0.48860(10) Bani  2.347650 S
   S22        1.0     0.66150(10)  0.8426(2)    0.52810(10) Bani  2.126571 S

loop_
   _atom_site_aniso_label
   _atom_site_aniso_U_11
   _atom_site_aniso_U_22
   _atom_site_aniso_U_33
   _atom_site_aniso_U_12
   _atom_site_aniso_U_13
   _atom_site_aniso_U_23
   S1	 0.01930  0.02200  0.03930  0.00220 -0.00490 -0.00120
   S2	 0.02180  0.03440  0.02690 -0.00350  0.00040 -0.00190
   S3	 0.01920  0.02260  0.03390 -0.00190 -0.00090 -0.00180
   S4	 0.02280  0.02680  0.03130 -0.00160  0.00160 -0.00050
   S5	 0.01710  0.02280  0.05190  0.00030 -0.00480  0.00010
   S6	 0.01920  0.02500  0.05680 -0.00070  0.00490 -0.00660
   S7	 0.02810  0.04160  0.04370 -0.00340 -0.01400  0.00980
   S8	 0.03060  0.02550  0.03280 -0.00330  0.00350  0.00190
   S9	 0.02900  0.03100  0.03290 -0.00330  0.00940 -0.00360
   S10	 0.01970  0.02710  0.04210 -0.00400 -0.00510  0.00120
   S11	 0.02420  0.02630  0.02860 -0.00300 -0.00130 -0.00110
   S12	 0.02290  0.02030  0.03940 -0.00230 -0.00020  0.00300
   S13	 0.02650  0.03030  0.02540 -0.00090  0.00050 -0.00190
   S14	 0.02390  0.02220  0.03830 -0.00020  0.00400 -0.00330
   S15	 0.01960  0.02850  0.03190 -0.00140 -0.00150 -0.00070
   S16	 0.01550  0.02400  0.05240  0.00060  0.00360 -0.00080
   S17	 0.02120  0.02210  0.05970  0.00150 -0.00550 -0.00850
   S18	 0.03550  0.03450  0.03050  0.00730  0.00590  0.00500
   S19	 0.02050  0.02150  0.03430  0.00340 -0.00070 -0.00080
   S20	 0.02830  0.02740  0.03050 -0.00110 -0.01010 -0.00040
   S21	 0.02030  0.03030  0.03860  0.00350  0.00330  0.00490
   S22	 0.02620  0.02750  0.02710  0.00210 -0.00090  0.00040
