
#======================================================================
# CRYSTAL DATA
#----------------------------------------------------------------------
data_VESTA_phase_1

_chemical_name_common                  'Ni2 P4 Zr9'
_cell_length_a                         12.0862(2)
_cell_length_b                         12.0862(2)
_cell_length_c                         3.6435(4)
_cell_angle_alpha                      90.000000
_cell_angle_beta                       90.000000
_cell_angle_gamma                      90.000000
_cell_volume                           532.228738
_space_group_name_H-M_alt              'P 4/m b m'
_space_group_IT_number                 127

loop_
_space_group_symop_operation_xyz
   'x, y, z'
   '-x, -y, -z'
   '-x, -y, z'
   'x, y, -z'
   '-y, x, z'
   'y, -x, -z'
   'y, -x, z'
   '-y, x, -z'
   '-x+1/2, y+1/2, -z'
   'x+1/2, -y+1/2, z'
   'x+1/2, -y+1/2, -z'
   '-x+1/2, y+1/2, z'
   'y+1/2, x+1/2, -z'
   '-y+1/2, -x+1/2, z'
   '-y+1/2, -x+1/2, -z'
   'y+1/2, x+1/2, z'

loop_
   _atom_site_label
   _atom_site_occupancy
   _atom_site_fract_x
   _atom_site_fract_y
   _atom_site_fract_z
   _atom_site_adp_type
   _atom_site_U_iso_or_equiv
   _atom_site_type_symbol
   ZR(1)      1.0     0.000000     0.000000     0.000000    Uiso  0.005700 Zr
   ZR(2)      1.0     0.18219(6)   0.10245(6)   0.500000    Uiso  0.006400 Zr
   ZR(3)      1.0     0.40586(6)   0.094100     0.000000    Uiso  0.010500 Zr
   ZR(4)      1.0     0.12123(7)   0.378800     0.500000    Uiso  0.009800 Zr
   NI         1.0     0.24619(10)  0.253800     0.000000    Uiso  0.012500 Ni
   P          1.0     0.0563(2)    0.2238(2)    0.000000    Uiso  0.005500 P
