data_image0
_chemical_formula_structural       AgYbO8C20H12C4H12N5C4H12OH4
_chemical_formula_sum              "Ag1 Yb1 O9 C28 H40 N5"
_cell_length_a       7.6835
_cell_length_b       8.6805
_cell_length_c       12.354
_cell_angle_alpha    90.0
_cell_angle_beta     90.0
_cell_angle_gamma    90.0

_space_group_name_H-M_alt    "P 1"
_space_group_IT_number       1

loop_
  _space_group_symop_operation_xyz
  'x, y, z'

loop_
  _atom_site_type_symbol
  _atom_site_label
  _atom_site_symmetry_multiplicity
  _atom_site_fract_x
  _atom_site_fract_y
  _atom_site_fract_z
  _atom_site_occupancy
  Ag  Ag1       1.0  0.0  0.5  0.0  1.0000
  Yb  Yb1       1.0  0.5  0.0  0.5  1.0000
  O   O1        1.0  0.4156  0.1492  0.6475  1.0000
  O   O2        1.0  0.5844000000000001  0.8508  0.6475  1.0000
  O   O3        1.0  0.5844000000000001  0.1492  0.3525000000000001  1.0000
  O   O4        1.0  0.4156  0.8508  0.3525000000000001  1.0000
  O   O5        1.0  0.7362  0.1346  0.5575  1.0000
  O   O6        1.0  0.26380000000000003  0.8654  0.5575  1.0000
  O   O7        1.0  0.26380000000000003  0.1346  0.4425  1.0000
  O   O8        1.0  0.7362  0.8654  0.4425  1.0000
  C   C1        1.0  0.7546  0.2958  0.8238  1.0000
  C   C2        1.0  0.24539999999999998  0.7041999999999999  0.8238  1.0000
  C   C3        1.0  0.24539999999999998  0.2958  0.17620000000000002  1.0000
  C   C4        1.0  0.7546  0.7041999999999999  0.17620000000000002  1.0000
  C   C5        1.0  0.6768  0.2278  0.7307  1.0000
  C   C6        1.0  0.32320000000000004  0.7722  0.7307  1.0000
  C   C7        1.0  0.32320000000000004  0.2278  0.2693  1.0000
  C   C8        1.0  0.6768  0.7722  0.2693  1.0000
  C   C9        1.0  0.4941  0.21080000000000004  0.7262  1.0000
  C   C10       1.0  0.5059  0.7892000000000001  0.7262  1.0000
  C   C11       1.0  0.5059  0.21080000000000004  0.27380000000000004  1.0000
  C   C12       1.0  0.4941  0.7892000000000001  0.27380000000000004  1.0000
  C   C13       1.0  0.7890000000000003  0.192  0.6445  1.0000
  C   C14       1.0  0.21099999999999988  0.808  0.6445  1.0000
  C   C15       1.0  0.21099999999999988  0.192  0.35550000000000004  1.0000
  C   C16       1.0  0.7890000000000003  0.808  0.35550000000000004  1.0000
  C   C17       1.0  0.3859  0.2684  0.8191  1.0000
  C   C18       1.0  0.6141000000000001  0.7316000000000001  0.8191  1.0000
  C   C19       1.0  0.6141000000000001  0.2684  0.18089999999999995  1.0000
  C   C20       1.0  0.3859  0.7316000000000001  0.18089999999999995  1.0000
  H   H1        1.0  0.3085  0.3506  0.7938  1.0000
  H   H2        1.0  0.6915  0.6494  0.7938  1.0000
  H   H3        1.0  0.6915  0.3506  0.20620000000000005  1.0000
  H   H4        1.0  0.3085  0.6494  0.20620000000000005  1.0000
  H   H5        1.0  0.46250000000000013  0.3086  0.8759  1.0000
  H   H6        1.0  0.5375  0.6914  0.8759  1.0000
  H   H7        1.0  0.5375  0.3086  0.12409999999999999  1.0000
  H   H8        1.0  0.46250000000000013  0.6914  0.12409999999999999  1.0000
  H   H9        1.0  0.3161000000000001  0.1835  0.8482999999999999  1.0000
  H   H10       1.0  0.6839000000000001  0.8165000000000001  0.8482999999999999  1.0000
  H   H11       1.0  0.6839000000000001  0.1835  0.15170000000000006  1.0000
  H   H12       1.0  0.3161000000000001  0.8165000000000001  0.15170000000000006  1.0000
  C   C21       1.0  0.9832000000000002  0.2215  0.6528999999999999  1.0000
  C   C22       1.0  0.016799999999999926  0.7785  0.6528999999999999  1.0000
  C   C23       1.0  0.016799999999999926  0.2215  0.3471000000000001  1.0000
  C   C24       1.0  0.9832000000000002  0.7785  0.3471000000000001  1.0000
  H   H13       1.0  0.04170000000000007  0.1802  0.5887  1.0000
  H   H14       1.0  0.9582999999999999  0.8198000000000001  0.5887  1.0000
  H   H15       1.0  0.9582999999999999  0.1802  0.4113  1.0000
  H   H16       1.0  0.04170000000000007  0.8198000000000001  0.4113  1.0000
  H   H17       1.0  0.028999999999999918  0.1706  0.7178  1.0000
  H   H18       1.0  0.9710000000000002  0.8294  0.7178  1.0000
  H   H19       1.0  0.9710000000000002  0.1706  0.2822  1.0000
  H   H20       1.0  0.028999999999999918  0.8294  0.2822  1.0000
  H   H21       1.0  0.0043999999999999595  0.3326  0.6578  1.0000
  H   H22       1.0  0.9956000000000002  0.6674  0.6578  1.0000
  H   H23       1.0  0.9956000000000002  0.3326  0.3421999999999999  1.0000
  H   H24       1.0  0.0043999999999999595  0.6674  0.3421999999999999  1.0000
  N   N1        1.0  0.8220000000000002  0.3511  0.8974  1.0000
  N   N2        1.0  0.17799999999999996  0.6489  0.8974  1.0000
  N   N3        1.0  0.17799999999999996  0.3511  0.10260000000000002  1.0000
  N   N4        1.0  0.8220000000000002  0.6489  0.10260000000000002  1.0000
  N   N5        1.0  0.5  0.5  0.5  1.0000
  C   C25       1.0  0.357  0.5  0.5  0.5000
  C   C26       1.0  0.643  0.5  0.5  0.5000
  C   C27       1.0  0.20700000000000005  0.5  0.5  0.5000
  C   C28       1.0  0.793  0.5  0.5  0.5000
  H   H25       1.0  0.1644  0.4551  0.5678  0.2500
  H   H26       1.0  0.8356  0.5449  0.5678  0.2500
  H   H27       1.0  0.8356  0.4551  0.4322  0.2500
  H   H28       1.0  0.1644  0.5449  0.4322  0.2500
  H   H29       1.0  0.1644  0.4389  0.4388  0.2500
  H   H30       1.0  0.8356  0.5610999999999999  0.4388  0.2500
  H   H31       1.0  0.8356  0.4389  0.5611999999999999  0.2500
  H   H32       1.0  0.1644  0.5610999999999999  0.5611999999999999  0.2500
  H   H33       1.0  0.1644  0.606  0.4934  0.2500
  H   H34       1.0  0.8356  0.394  0.4934  0.2500
  H   H35       1.0  0.8356  0.606  0.5065999999999999  0.2500
  H   H36       1.0  0.1644  0.394  0.5065999999999999  0.2500
  O   O9        1.0  0.0  0.0  0.0  1.0000
  H   H37       1.0  0.0846  0.0576  0.0  0.2500
  H   H38       1.0  0.9154  0.9424  0.0  0.2500
  H   H39       1.0  0.9154  0.0576  0.0  0.2500
  H   H40       1.0  0.0846  0.9424  0.0  0.2500
