
#======================================================================
# CRYSTAL DATA
#----------------------------------------------------------------------
data_VESTA_phase_1

_chemical_name_common                  'O1 Ti3'
_cell_length_a                         5.141800
_cell_length_b                         5.141800
_cell_length_c                         14.308000
_cell_angle_alpha                      90.000000
_cell_angle_beta                       90.000000
_cell_angle_gamma                      120.000000
_cell_volume                           327.596987
_space_group_name_H-M_alt              'P 3 1 2'
_space_group_IT_number                 149

loop_
_space_group_symop_operation_xyz
   'x, y, z'
   '-y, x-y, z'
   '-x+y, -x, z'
   '-y, -x, -z'
   '-x+y, y, -z'
   'x, x-y, -z'

loop_
   _atom_site_label
   _atom_site_occupancy
   _atom_site_fract_x
   _atom_site_fract_y
   _atom_site_fract_z
   _atom_site_adp_type
   _atom_site_B_iso_or_equiv
   _atom_site_type_symbol
   O1         1.0     0.000000     0.000000     0.500000    Biso  ? O
   O2         1.0     0.333333     0.666667     0.500000    Biso  ? O
   O3         1.0     0.666667     0.333333     0.166667    Biso  ? O
   O4         1.0     0.333333     0.666667     0.166667    Biso  ? O
   Ti1        1.0     0.000000     0.666667     0.079000    Biso  ? Ti
   Ti2        1.0     0.333333     0.000000     0.254000    Biso  ? Ti
   Ti3        1.0     0.000000     0.666667     0.412000    Biso  ? Ti
