data_image0
_chemical_formula_structural       Ga12O28C32H16O32C32H16C16H16C16
_chemical_formula_sum              "Ga12 O60 C96 H48"
_cell_length_a       21.176
_cell_length_b       36.703
_cell_length_c       6.7423
_cell_angle_alpha    90.0
_cell_angle_beta     90.0
_cell_angle_gamma    90.0

_space_group_name_H-M_alt    "P 1"
_space_group_IT_number       1

loop_
  _space_group_symop_operation_xyz
  'x, y, z'

loop_
  _atom_site_type_symbol
  _atom_site_label
  _atom_site_symmetry_multiplicity
  _atom_site_fract_x
  _atom_site_fract_y
  _atom_site_fract_z
  _atom_site_occupancy
  Ga  Ga1       1.0  0.7499999999999999  0.75  0.5  1.0000
  Ga  Ga2       1.0  0.7499999999999999  0.75  0.0  1.0000
  Ga  Ga3       1.0  0.7499999999999999  0.25  0.0  1.0000
  Ga  Ga4       1.0  0.7499999999999999  0.25  0.5  1.0000
  Ga  Ga5       1.0  0.25  0.25  0.5  1.0000
  Ga  Ga6       1.0  0.25  0.25  0.0  1.0000
  Ga  Ga7       1.0  0.25  0.75  0.0  1.0000
  Ga  Ga8       1.0  0.25  0.75  0.5  1.0000
  Ga  Ga9       1.0  0.0  0.0  0.5  1.0000
  Ga  Ga10      1.0  0.0  0.0  0.0  1.0000
  Ga  Ga11      1.0  0.5  0.5  0.5  1.0000
  Ga  Ga12      1.0  0.5  0.5  0.0  1.0000
  O   O1        1.0  0.773  0.727  0.25  1.0000
  O   O2        1.0  0.773  0.273  0.75  1.0000
  O   O3        1.0  0.273  0.22699999999999998  0.25  1.0000
  O   O4        1.0  0.273  0.773  0.75  1.0000
  O   O5        1.0  0.227  0.727  0.25  1.0000
  O   O6        1.0  0.227  0.273  0.75  1.0000
  O   O7        1.0  0.727  0.22699999999999998  0.25  1.0000
  O   O8        1.0  0.727  0.773  0.75  1.0000
  O   O9        1.0  0.0  0.02563  0.25  1.0000
  O   O10       1.0  0.0  0.97437  0.75  1.0000
  O   O11       1.0  0.5  0.52563  0.25  1.0000
  O   O12       1.0  0.5  0.47437000000000007  0.75  1.0000
  O   O13       1.0  0.8335364000000001  0.7347336  0.5894424  1.0000
  O   O14       1.0  0.8335364000000001  0.7347336  0.9105576000000002  1.0000
  O   O15       1.0  0.8335364000000001  0.2652664  0.08944239999999994  1.0000
  O   O16       1.0  0.8335364000000001  0.2652664  0.4105576000000001  1.0000
  O   O17       1.0  0.3335364  0.2347336  0.5894424  1.0000
  O   O18       1.0  0.3335364  0.2347336  0.9105576000000002  1.0000
  O   O19       1.0  0.3335364  0.7652664000000001  0.08944239999999994  1.0000
  O   O20       1.0  0.3335364  0.7652664000000001  0.4105576000000001  1.0000
  O   O21       1.0  0.1664636  0.7347336  0.5894424  1.0000
  O   O22       1.0  0.1664636  0.7347336  0.9105576000000002  1.0000
  O   O23       1.0  0.1664636  0.2652664  0.08944239999999994  1.0000
  O   O24       1.0  0.1664636  0.2652664  0.4105576000000001  1.0000
  O   O25       1.0  0.6664635999999999  0.2347336  0.5894424  1.0000
  O   O26       1.0  0.6664635999999999  0.2347336  0.9105576000000002  1.0000
  O   O27       1.0  0.6664635999999999  0.7652664000000001  0.08944239999999994  1.0000
  O   O28       1.0  0.6664635999999999  0.7652664000000001  0.4105576000000001  1.0000
  C   C1        1.0  0.8630512  0.7347336  0.75  1.0000
  C   C2        1.0  0.8630512  0.2652664  0.25  1.0000
  C   C3        1.0  0.3630512  0.2347336  0.75  1.0000
  C   C4        1.0  0.3630512  0.7652664000000001  0.25  1.0000
  C   C5        1.0  0.1369488  0.7347336  0.75  1.0000
  C   C6        1.0  0.1369488  0.2652664  0.25  1.0000
  C   C7        1.0  0.6369488  0.2347336  0.75  1.0000
  C   C8        1.0  0.6369488  0.7652664000000001  0.25  1.0000
  C   C9        1.0  0.9338867999999999  0.7347336  0.75  1.0000
  C   C10       1.0  0.9338867999999999  0.2652664  0.25  1.0000
  C   C11       1.0  0.4338868  0.2347336  0.75  1.0000
  C   C12       1.0  0.4338868  0.7652664000000001  0.25  1.0000
  C   C13       1.0  0.0661132  0.7347336  0.75  1.0000
  C   C14       1.0  0.0661132  0.2652664  0.25  1.0000
  C   C15       1.0  0.5661132  0.2347336  0.75  1.0000
  C   C16       1.0  0.5661132  0.7652664000000001  0.25  1.0000
  C   C17       1.0  0.9669434  0.7347336  0.5701755  1.0000
  C   C18       1.0  0.9669434  0.7347336  0.9298245  1.0000
  C   C19       1.0  0.9669434  0.2652664  0.07017549999999996  1.0000
  C   C20       1.0  0.9669434  0.2652664  0.4298245000000001  1.0000
  C   C21       1.0  0.46694339999999995  0.2347336  0.5701755  1.0000
  C   C22       1.0  0.46694339999999995  0.2347336  0.9298245  1.0000
  C   C23       1.0  0.46694339999999995  0.7652664000000001  0.07017549999999996  1.0000
  C   C24       1.0  0.46694339999999995  0.7652664000000001  0.4298245000000001  1.0000
  C   C25       1.0  0.0330566  0.7347336  0.5701755  1.0000
  C   C26       1.0  0.0330566  0.7347336  0.9298245  1.0000
  C   C27       1.0  0.0330566  0.2652664  0.07017549999999996  1.0000
  C   C28       1.0  0.0330566  0.2652664  0.4298245000000001  1.0000
  C   C29       1.0  0.5330566  0.2347336  0.5701755  1.0000
  C   C30       1.0  0.5330566  0.2347336  0.9298245  1.0000
  C   C31       1.0  0.5330566  0.7652664000000001  0.07017549999999996  1.0000
  C   C32       1.0  0.5330566  0.7652664000000001  0.4298245000000001  1.0000
  H   H1        1.0  0.94380378  0.7347336  0.4442983  1.0000
  H   H2        1.0  0.94380378  0.7347336  0.055701700000000194  1.0000
  H   H3        1.0  0.94380378  0.2652664  0.9442982999999999  1.0000
  H   H4        1.0  0.94380378  0.2652664  0.5557017000000001  1.0000
  H   H5        1.0  0.44380378  0.2347336  0.4442983  1.0000
  H   H6        1.0  0.44380378  0.2347336  0.055701700000000194  1.0000
  H   H7        1.0  0.44380378  0.7652664000000001  0.9442982999999999  1.0000
  H   H8        1.0  0.44380378  0.7652664000000001  0.5557017000000001  1.0000
  H   H9        1.0  0.05619622  0.7347336  0.4442983  1.0000
  H   H10       1.0  0.05619622  0.7347336  0.055701700000000194  1.0000
  H   H11       1.0  0.05619622  0.2652664  0.9442982999999999  1.0000
  H   H12       1.0  0.05619622  0.2652664  0.5557017000000001  1.0000
  H   H13       1.0  0.55619622  0.2347336  0.4442983  1.0000
  H   H14       1.0  0.55619622  0.2347336  0.055701700000000194  1.0000
  H   H15       1.0  0.55619622  0.7652664000000001  0.9442982999999999  1.0000
  H   H16       1.0  0.55619622  0.7652664000000001  0.5557017000000001  1.0000
  O   O29       1.0  0.7345317  0.700591  0.5894424  1.0000
  O   O30       1.0  0.7345317  0.700591  0.9105576000000002  1.0000
  O   O31       1.0  0.7345317  0.299409  0.08944239999999994  1.0000
  O   O32       1.0  0.7345317  0.299409  0.4105576000000001  1.0000
  O   O33       1.0  0.2345317  0.20059100000000002  0.5894424  1.0000
  O   O34       1.0  0.2345317  0.20059100000000002  0.9105576000000002  1.0000
  O   O35       1.0  0.2345317  0.799409  0.08944239999999994  1.0000
  O   O36       1.0  0.2345317  0.799409  0.4105576000000001  1.0000
  O   O37       1.0  0.2654683  0.700591  0.5894424  1.0000
  O   O38       1.0  0.2654683  0.700591  0.9105576000000002  1.0000
  O   O39       1.0  0.2654683  0.299409  0.08944239999999994  1.0000
  O   O40       1.0  0.2654683  0.299409  0.4105576000000001  1.0000
  O   O41       1.0  0.7654683  0.20059100000000002  0.5894424  1.0000
  O   O42       1.0  0.7654683  0.20059100000000002  0.9105576000000002  1.0000
  O   O43       1.0  0.7654683  0.799409  0.08944239999999994  1.0000
  O   O44       1.0  0.7654683  0.799409  0.4105576000000001  1.0000
  O   O45       1.0  0.5569128999999999  0.5381295  0.5894424  1.0000
  O   O46       1.0  0.5569128999999999  0.5381295  0.9105576000000002  1.0000
  O   O47       1.0  0.5569128999999999  0.4618705  0.08944239999999994  1.0000
  O   O48       1.0  0.5569128999999999  0.4618705  0.4105576000000001  1.0000
  O   O49       1.0  0.05691289999999999  0.03812949999999998  0.5894424  1.0000
  O   O50       1.0  0.05691289999999999  0.03812949999999998  0.9105576000000002  1.0000
  O   O51       1.0  0.05691289999999999  0.9618705000000001  0.08944239999999994  1.0000
  O   O52       1.0  0.05691289999999999  0.9618705000000001  0.4105576000000001  1.0000
  O   O53       1.0  0.4430871  0.5381295  0.5894424  1.0000
  O   O54       1.0  0.4430871  0.5381295  0.9105576000000002  1.0000
  O   O55       1.0  0.4430871  0.4618705  0.08944239999999994  1.0000
  O   O56       1.0  0.4430871  0.4618705  0.4105576000000001  1.0000
  O   O57       1.0  0.9430871  0.03812949999999998  0.5894424  1.0000
  O   O58       1.0  0.9430871  0.03812949999999998  0.9105576000000002  1.0000
  O   O59       1.0  0.9430871  0.9618705000000001  0.08944239999999994  1.0000
  O   O60       1.0  0.9430871  0.9618705000000001  0.4105576000000001  1.0000
  C   C33       1.0  0.7187853  0.6861884  0.75  1.0000
  C   C34       1.0  0.7187853  0.3138116000000001  0.25  1.0000
  C   C35       1.0  0.21878530000000002  0.18618839999999995  0.75  1.0000
  C   C36       1.0  0.21878530000000002  0.8138116000000001  0.25  1.0000
  C   C37       1.0  0.2812147  0.6861884  0.75  1.0000
  C   C38       1.0  0.2812147  0.3138116000000001  0.25  1.0000
  C   C39       1.0  0.7812147  0.18618839999999995  0.75  1.0000
  C   C40       1.0  0.7812147  0.8138116000000001  0.25  1.0000
  C   C41       1.0  0.6809940999999999  0.6516221000000001  0.75  1.0000
  C   C42       1.0  0.6809940999999999  0.3483779  0.25  1.0000
  C   C43       1.0  0.1809941  0.15162209999999998  0.75  1.0000
  C   C44       1.0  0.1809941  0.8483779  0.25  1.0000
  C   C45       1.0  0.3190059  0.6516221000000001  0.75  1.0000
  C   C46       1.0  0.3190059  0.3483779  0.25  1.0000
  C   C47       1.0  0.8190059000000001  0.15162209999999998  0.75  1.0000
  C   C48       1.0  0.8190059000000001  0.8483779  0.25  1.0000
  C   C49       1.0  0.6633582  0.6354911999999999  0.5701755  1.0000
  C   C50       1.0  0.6633582  0.6354911999999999  0.9298245  1.0000
  C   C51       1.0  0.6633582  0.3645088  0.07017549999999996  1.0000
  C   C52       1.0  0.6633582  0.3645088  0.4298245000000001  1.0000
  C   C53       1.0  0.16335819999999998  0.13549119999999998  0.5701755  1.0000
  C   C54       1.0  0.16335819999999998  0.13549119999999998  0.9298245  1.0000
  C   C55       1.0  0.16335819999999998  0.8645088000000001  0.07017549999999996  1.0000
  C   C56       1.0  0.16335819999999998  0.8645088000000001  0.4298245000000001  1.0000
  C   C57       1.0  0.3366418  0.6354911999999999  0.5701755  1.0000
  C   C58       1.0  0.3366418  0.6354911999999999  0.9298245  1.0000
  C   C59       1.0  0.3366418  0.3645088  0.07017549999999996  1.0000
  C   C60       1.0  0.3366418  0.3645088  0.4298245000000001  1.0000
  C   C61       1.0  0.8366418  0.13549119999999998  0.5701755  1.0000
  C   C62       1.0  0.8366418  0.13549119999999998  0.9298245  1.0000
  C   C63       1.0  0.8366418  0.8645088000000001  0.07017549999999996  1.0000
  C   C64       1.0  0.8366418  0.8645088000000001  0.4298245000000001  1.0000
  H   H17       1.0  0.6757033000000001  0.6467828000000001  0.4442983  1.0000
  H   H18       1.0  0.6757033000000001  0.6467828000000001  0.055701700000000194  1.0000
  H   H19       1.0  0.6757033000000001  0.3532172  0.9442982999999999  1.0000
  H   H20       1.0  0.6757033000000001  0.3532172  0.5557017000000001  1.0000
  H   H21       1.0  0.17570330000000006  0.1467828  0.4442983  1.0000
  H   H22       1.0  0.17570330000000006  0.1467828  0.055701700000000194  1.0000
  H   H23       1.0  0.17570330000000006  0.8532172  0.9442982999999999  1.0000
  H   H24       1.0  0.17570330000000006  0.8532172  0.5557017000000001  1.0000
  H   H25       1.0  0.32429669999999994  0.6467828000000001  0.4442983  1.0000
  H   H26       1.0  0.32429669999999994  0.6467828000000001  0.055701700000000194  1.0000
  H   H27       1.0  0.32429669999999994  0.3532172  0.9442982999999999  1.0000
  H   H28       1.0  0.32429669999999994  0.3532172  0.5557017000000001  1.0000
  H   H29       1.0  0.8242966999999998  0.1467828  0.4442983  1.0000
  H   H30       1.0  0.8242966999999998  0.1467828  0.055701700000000194  1.0000
  H   H31       1.0  0.8242966999999998  0.8532172  0.9442982999999999  1.0000
  H   H32       1.0  0.8242966999999998  0.8532172  0.5557017000000001  1.0000
  C   C65       1.0  0.6280863999999999  0.6032293000000001  0.5701755  1.0000
  C   C66       1.0  0.6280863999999999  0.6032293000000001  0.9298245  1.0000
  C   C67       1.0  0.6280863999999999  0.3967707  0.07017549999999996  1.0000
  C   C68       1.0  0.6280863999999999  0.3967707  0.4298245000000001  1.0000
  C   C69       1.0  0.1280864  0.10322930000000002  0.5701755  1.0000
  C   C70       1.0  0.1280864  0.10322930000000002  0.9298245  1.0000
  C   C71       1.0  0.1280864  0.8967707  0.07017549999999996  1.0000
  C   C72       1.0  0.1280864  0.8967707  0.4298245000000001  1.0000
  C   C73       1.0  0.3719136  0.6032293000000001  0.5701755  1.0000
  C   C74       1.0  0.3719136  0.6032293000000001  0.9298245  1.0000
  C   C75       1.0  0.3719136  0.3967707  0.07017549999999996  1.0000
  C   C76       1.0  0.3719136  0.3967707  0.4298245000000001  1.0000
  C   C77       1.0  0.8719136000000001  0.10322930000000002  0.5701755  1.0000
  C   C78       1.0  0.8719136000000001  0.10322930000000002  0.9298245  1.0000
  C   C79       1.0  0.8719136000000001  0.8967707  0.07017549999999996  1.0000
  C   C80       1.0  0.8719136000000001  0.8967707  0.4298245000000001  1.0000
  H   H33       1.0  0.6157412  0.5919377  0.4442983  1.0000
  H   H34       1.0  0.6157412  0.5919377  0.055701700000000194  1.0000
  H   H35       1.0  0.6157412  0.4080623  0.9442982999999999  1.0000
  H   H36       1.0  0.6157412  0.4080623  0.5557017000000001  1.0000
  H   H37       1.0  0.11574120000000004  0.09193770000000001  0.4442983  1.0000
  H   H38       1.0  0.11574120000000004  0.09193770000000001  0.055701700000000194  1.0000
  H   H39       1.0  0.11574120000000004  0.9080623  0.9442982999999999  1.0000
  H   H40       1.0  0.11574120000000004  0.9080623  0.5557017000000001  1.0000
  H   H41       1.0  0.38425879999999996  0.5919377  0.4442983  1.0000
  H   H42       1.0  0.38425879999999996  0.5919377  0.055701700000000194  1.0000
  H   H43       1.0  0.38425879999999996  0.4080623  0.9442982999999999  1.0000
  H   H44       1.0  0.38425879999999996  0.4080623  0.5557017000000001  1.0000
  H   H45       1.0  0.8842588  0.09193770000000001  0.4442983  1.0000
  H   H46       1.0  0.8842588  0.09193770000000001  0.055701700000000194  1.0000
  H   H47       1.0  0.8842588  0.9080623  0.9442982999999999  1.0000
  H   H48       1.0  0.8842588  0.9080623  0.5557017000000001  1.0000
  C   C81       1.0  0.6104504999999999  0.5870984  0.75  1.0000
  C   C82       1.0  0.6104504999999999  0.4129016  0.25  1.0000
  C   C83       1.0  0.11045049999999994  0.08709840000000002  0.75  1.0000
  C   C84       1.0  0.11045049999999994  0.9129016  0.25  1.0000
  C   C85       1.0  0.38954950000000005  0.5870984  0.75  1.0000
  C   C86       1.0  0.38954950000000005  0.4129016  0.25  1.0000
  C   C87       1.0  0.8895495  0.08709840000000002  0.75  1.0000
  C   C88       1.0  0.8895495  0.9129016  0.25  1.0000
  C   C89       1.0  0.5726591999999999  0.5525321  0.75  1.0000
  C   C90       1.0  0.5726591999999999  0.44746790000000003  0.25  1.0000
  C   C91       1.0  0.07265919999999997  0.05253209999999997  0.75  1.0000
  C   C92       1.0  0.07265919999999997  0.9474679  0.25  1.0000
  C   C93       1.0  0.4273408  0.5525321  0.75  1.0000
  C   C94       1.0  0.4273408  0.44746790000000003  0.25  1.0000
  C   C95       1.0  0.9273408  0.05253209999999997  0.75  1.0000
  C   C96       1.0  0.9273408  0.9474679  0.25  1.0000
