data_image0
_chemical_formula_structural       Mn8O16C8O8C8H8O24C8H8C8O8C8H8C8H8C8H16C8H48
_chemical_formula_sum              "Mn8 O56 C64 H96"
_cell_length_a       10.3513
_cell_length_b       18.9903
_cell_length_c       10.4899
_cell_angle_alpha    90.0
_cell_angle_beta     90.0
_cell_angle_gamma    90.0

_space_group_name_H-M_alt    "P 1"
_space_group_IT_number       1

loop_
  _space_group_symop_operation_xyz
  'x, y, z'

loop_
  _atom_site_type_symbol
  _atom_site_label
  _atom_site_symmetry_multiplicity
  _atom_site_fract_x
  _atom_site_fract_y
  _atom_site_fract_z
  _atom_site_occupancy
  Mn  Mn1       1.0  0.23964  0.466637  0.21088  1.0000
  Mn  Mn2       1.0  0.76036  0.533363  0.21088  1.0000
  Mn  Mn3       1.0  0.76036  0.466637  0.71088  1.0000
  Mn  Mn4       1.0  0.23964  0.533363  0.71088  1.0000
  Mn  Mn5       1.0  0.73964  0.966637  0.71088  1.0000
  Mn  Mn6       1.0  0.26036000000000004  0.03336299999999997  0.71088  1.0000
  Mn  Mn7       1.0  0.26036000000000004  0.966637  0.21088  1.0000
  Mn  Mn8       1.0  0.73964  0.03336299999999997  0.21088  1.0000
  O   O1        1.0  0.37728  0.37412  0.22353999999999996  1.0000
  O   O2        1.0  0.6227199999999999  0.62588  0.22353999999999996  1.0000
  O   O3        1.0  0.6227199999999999  0.37412  0.72354  1.0000
  O   O4        1.0  0.37728  0.62588  0.72354  1.0000
  O   O5        1.0  0.8772800000000001  0.87412  0.72354  1.0000
  O   O6        1.0  0.12271999999999998  0.12588  0.72354  1.0000
  O   O7        1.0  0.12271999999999998  0.87412  0.22353999999999996  1.0000
  O   O8        1.0  0.8772800000000001  0.12588  0.22353999999999996  1.0000
  O   O9        1.0  0.35327  0.46638999999999997  0.59926  1.0000
  O   O10       1.0  0.64673  0.53361  0.59926  1.0000
  O   O11       1.0  0.64673  0.46638999999999997  0.09926000000000013  1.0000
  O   O12       1.0  0.35327  0.53361  0.09926000000000013  1.0000
  O   O13       1.0  0.8532699999999999  0.9663899999999999  0.09926000000000013  1.0000
  O   O14       1.0  0.14673000000000003  0.03361000000000002  0.09926000000000013  1.0000
  O   O15       1.0  0.14673000000000003  0.9663899999999999  0.59926  1.0000
  O   O16       1.0  0.8532699999999999  0.03361000000000002  0.59926  1.0000
  C   C1        1.0  0.3559  0.45296999999999993  0.48293  1.0000
  C   C2        1.0  0.6441  0.5470300000000001  0.48293  1.0000
  C   C3        1.0  0.6441  0.45296999999999993  0.98293  1.0000
  C   C4        1.0  0.3559  0.5470300000000001  0.98293  1.0000
  C   C5        1.0  0.8559  0.9529699999999999  0.98293  1.0000
  C   C6        1.0  0.1441  0.047030000000000065  0.98293  1.0000
  C   C7        1.0  0.1441  0.9529699999999999  0.48293  1.0000
  C   C8        1.0  0.8559  0.047030000000000065  0.48293  1.0000
  O   O17       1.0  0.12216999999999999  0.56135  0.23773  1.0000
  O   O18       1.0  0.87783  0.43865  0.23773  1.0000
  O   O19       1.0  0.87783  0.56135  0.7377299999999999  1.0000
  O   O20       1.0  0.12216999999999999  0.43865  0.7377299999999999  1.0000
  O   O21       1.0  0.62217  0.06135000000000001  0.7377299999999999  1.0000
  O   O22       1.0  0.37783  0.9386499999999999  0.7377299999999999  1.0000
  O   O23       1.0  0.37783  0.06135000000000001  0.23773  1.0000
  O   O24       1.0  0.62217  0.9386499999999999  0.23773  1.0000
  C   C9        1.0  0.28402  0.32972  0.4091  1.0000
  C   C10       1.0  0.7159800000000001  0.67028  0.4091  1.0000
  C   C11       1.0  0.7159800000000001  0.32972  0.9090999999999999  1.0000
  C   C12       1.0  0.28402  0.67028  0.9090999999999999  1.0000
  C   C13       1.0  0.7840199999999999  0.82972  0.9090999999999999  1.0000
  C   C14       1.0  0.21597999999999998  0.17028  0.9090999999999999  1.0000
  C   C15       1.0  0.21597999999999998  0.82972  0.4091  1.0000
  C   C16       1.0  0.7840199999999999  0.17028  0.4091  1.0000
  H   H1        1.0  0.2856  0.2879  0.4636  1.0000
  H   H2        1.0  0.7143999999999999  0.7120999999999998  0.4636  1.0000
  H   H3        1.0  0.7143999999999999  0.2879  0.9635999999999999  1.0000
  H   H4        1.0  0.2856  0.7120999999999998  0.9635999999999999  1.0000
  H   H5        1.0  0.7856000000000001  0.7879  0.9635999999999999  1.0000
  H   H6        1.0  0.21439999999999998  0.21209999999999998  0.9635999999999999  1.0000
  H   H7        1.0  0.21439999999999998  0.7879  0.4636  1.0000
  H   H8        1.0  0.7856000000000001  0.21209999999999998  0.4636  1.0000
  O   O25       1.0  0.0868  0.35748  0.51658  1.0000
  O   O26       1.0  0.9132  0.64252  0.51658  1.0000
  O   O27       1.0  0.9132  0.35748  0.01658000000000004  1.0000
  O   O28       1.0  0.0868  0.64252  0.01658000000000004  1.0000
  O   O29       1.0  0.5868  0.85748  0.01658000000000004  1.0000
  O   O30       1.0  0.41319999999999996  0.14251999999999998  0.01658000000000004  1.0000
  O   O31       1.0  0.41319999999999996  0.85748  0.51658  1.0000
  O   O32       1.0  0.5868  0.14251999999999998  0.51658  1.0000
  O   O33       1.0  0.3217  0.4951  0.39658999999999994  1.0000
  O   O34       1.0  0.6783  0.5049  0.39658999999999994  1.0000
  O   O35       1.0  0.6783  0.4951  0.89659  1.0000
  O   O36       1.0  0.3217  0.5049  0.89659  1.0000
  O   O37       1.0  0.8217  0.9951  0.89659  1.0000
  O   O38       1.0  0.17830000000000001  0.0049000000000000155  0.89659  1.0000
  O   O39       1.0  0.17830000000000001  0.9951  0.39658999999999994  1.0000
  O   O40       1.0  0.8217  0.0049000000000000155  0.39658999999999994  1.0000
  O   O41       1.0  0.11371  0.40095  0.32282  1.0000
  O   O42       1.0  0.8862900000000001  0.5990500000000001  0.32282  1.0000
  O   O43       1.0  0.8862900000000001  0.40095  0.82282  1.0000
  O   O44       1.0  0.11371  0.5990500000000001  0.82282  1.0000
  O   O45       1.0  0.61371  0.9009499999999998  0.82282  1.0000
  O   O46       1.0  0.38629  0.09905000000000003  0.82282  1.0000
  O   O47       1.0  0.38629  0.9009499999999998  0.32282  1.0000
  O   O48       1.0  0.61371  0.09905000000000003  0.32282  1.0000
  C   C17       1.0  0.40058000000000005  0.37989  0.4442599999999999  1.0000
  C   C18       1.0  0.59942  0.6201099999999999  0.4442599999999999  1.0000
  C   C19       1.0  0.59942  0.37989  0.9442599999999998  1.0000
  C   C20       1.0  0.40058000000000005  0.6201099999999999  0.9442599999999998  1.0000
  C   C21       1.0  0.9005800000000002  0.8798900000000001  0.9442599999999998  1.0000
  C   C22       1.0  0.09941999999999995  0.12011  0.9442599999999998  1.0000
  C   C23       1.0  0.09941999999999995  0.8798900000000001  0.4442599999999999  1.0000
  C   C24       1.0  0.9005800000000002  0.12011  0.4442599999999999  1.0000
  H   H9        1.0  0.4519  0.3589  0.513  1.0000
  H   H10       1.0  0.5481  0.6411  0.513  1.0000
  H   H11       1.0  0.5481  0.3589  0.012999999999999899  1.0000
  H   H12       1.0  0.4519  0.6411  0.012999999999999899  1.0000
  H   H13       1.0  0.9519000000000001  0.8589  0.012999999999999899  1.0000
  H   H14       1.0  0.048099999999999976  0.1411  0.012999999999999899  1.0000
  H   H15       1.0  0.048099999999999976  0.8589  0.513  1.0000
  H   H16       1.0  0.9519000000000001  0.1411  0.513  1.0000
  C   C25       1.0  0.15121  0.36556999999999995  0.41783999999999993  1.0000
  C   C26       1.0  0.8487899999999999  0.63443  0.41783999999999993  1.0000
  C   C27       1.0  0.8487899999999999  0.36556999999999995  0.91784  1.0000
  C   C28       1.0  0.15121  0.63443  0.91784  1.0000
  C   C29       1.0  0.6512100000000001  0.86557  0.91784  1.0000
  C   C30       1.0  0.34879  0.13443000000000002  0.91784  1.0000
  C   C31       1.0  0.34879  0.86557  0.41783999999999993  1.0000
  C   C32       1.0  0.6512100000000001  0.13443000000000002  0.41783999999999993  1.0000
  O   O49       1.0  0.15899  0.41688  0.042249999999999996  1.0000
  O   O50       1.0  0.8410099999999999  0.5831200000000001  0.042249999999999996  1.0000
  O   O51       1.0  0.8410099999999999  0.41688  0.54225  1.0000
  O   O52       1.0  0.15899  0.5831200000000001  0.54225  1.0000
  O   O53       1.0  0.65899  0.9168799999999998  0.54225  1.0000
  O   O54       1.0  0.34101000000000004  0.08312000000000001  0.54225  1.0000
  O   O55       1.0  0.34101000000000004  0.9168799999999998  0.042249999999999996  1.0000
  O   O56       1.0  0.65899  0.08312000000000001  0.042249999999999996  1.0000
  C   C33       1.0  0.47817  0.37949  0.31992999999999994  1.0000
  C   C34       1.0  0.52183  0.62051  0.31992999999999994  1.0000
  C   C35       1.0  0.52183  0.37949  0.8199299999999998  1.0000
  C   C36       1.0  0.47817  0.62051  0.8199299999999998  1.0000
  C   C37       1.0  0.97817  0.87949  0.8199299999999998  1.0000
  C   C38       1.0  0.021830000000000016  0.12050999999999999  0.8199299999999998  1.0000
  C   C39       1.0  0.021830000000000016  0.87949  0.31992999999999994  1.0000
  C   C40       1.0  0.97817  0.12050999999999999  0.31992999999999994  1.0000
  H   H17       1.0  0.5344  0.4206  0.3094  1.0000
  H   H18       1.0  0.46559999999999996  0.5794  0.3094  1.0000
  H   H19       1.0  0.46559999999999996  0.4206  0.8094  1.0000
  H   H20       1.0  0.5344  0.5794  0.8094  1.0000
  H   H21       1.0  0.034399999999999986  0.9205999999999999  0.8094  1.0000
  H   H22       1.0  0.9656  0.07940000000000003  0.8094  1.0000
  H   H23       1.0  0.9656  0.9205999999999999  0.3094  1.0000
  H   H24       1.0  0.034399999999999986  0.07940000000000003  0.3094  1.0000
  C   C41       1.0  0.32042  0.30945  0.2721  1.0000
  C   C42       1.0  0.6795800000000001  0.69055  0.2721  1.0000
  C   C43       1.0  0.6795800000000001  0.30945  0.7721  1.0000
  C   C44       1.0  0.32042  0.69055  0.7721  1.0000
  C   C45       1.0  0.8204199999999999  0.80945  0.7721  1.0000
  C   C46       1.0  0.17958000000000002  0.19055  0.7721  1.0000
  C   C47       1.0  0.17958000000000002  0.80945  0.2721  1.0000
  C   C48       1.0  0.8204199999999999  0.19055  0.2721  1.0000
  H   H25       1.0  0.24709999999999996  0.2926  0.2215  1.0000
  H   H26       1.0  0.7529  0.7074  0.2215  1.0000
  H   H27       1.0  0.7529  0.2926  0.7214999999999999  1.0000
  H   H28       1.0  0.24709999999999996  0.7074  0.7214999999999999  1.0000
  H   H29       1.0  0.7471  0.7925999999999999  0.7214999999999999  1.0000
  H   H30       1.0  0.2529  0.20739999999999997  0.7214999999999999  1.0000
  H   H31       1.0  0.2529  0.7925999999999999  0.2215  1.0000
  H   H32       1.0  0.7471  0.20739999999999997  0.2215  1.0000
  C   C49       1.0  0.54794  0.30928  0.3051  1.0000
  C   C50       1.0  0.4520600000000001  0.69072  0.3051  1.0000
  C   C51       1.0  0.4520600000000001  0.30928  0.8050999999999999  1.0000
  C   C52       1.0  0.54794  0.69072  0.8050999999999999  1.0000
  C   C53       1.0  0.047940000000000094  0.80928  0.8050999999999999  1.0000
  C   C54       1.0  0.95206  0.19071999999999997  0.8050999999999999  1.0000
  C   C55       1.0  0.95206  0.80928  0.3051  1.0000
  C   C56       1.0  0.047940000000000094  0.19071999999999997  0.3051  1.0000
  H   H33       1.0  0.5904  0.2955  0.3837  1.0000
  H   H34       1.0  0.40959999999999996  0.7045  0.3837  1.0000
  H   H35       1.0  0.40959999999999996  0.2955  0.8836999999999999  1.0000
  H   H36       1.0  0.5904  0.7045  0.8836999999999999  1.0000
  H   H37       1.0  0.09040000000000004  0.7955  0.8836999999999999  1.0000
  H   H38       1.0  0.9095999999999999  0.20450000000000002  0.8836999999999999  1.0000
  H   H39       1.0  0.9095999999999999  0.7955  0.3837  1.0000
  H   H40       1.0  0.09040000000000004  0.20450000000000002  0.3837  1.0000
  H   H41       1.0  0.6112  0.3111  0.23699999999999996  1.0000
  H   H42       1.0  0.3888  0.6889000000000001  0.23699999999999996  1.0000
  H   H43       1.0  0.3888  0.3111  0.737  1.0000
  H   H44       1.0  0.6112  0.6889000000000001  0.737  1.0000
  H   H45       1.0  0.11119999999999995  0.8110999999999999  0.737  1.0000
  H   H46       1.0  0.8888  0.1889  0.737  1.0000
  H   H47       1.0  0.8888  0.8110999999999999  0.23699999999999996  1.0000
  H   H48       1.0  0.11119999999999995  0.1889  0.23699999999999996  1.0000
  C   C57       1.0  0.4359  0.25889  0.2721  1.0000
  C   C58       1.0  0.5641  0.7411099999999998  0.2721  1.0000
  C   C59       1.0  0.5641  0.25889  0.7721  1.0000
  C   C60       1.0  0.4359  0.7411099999999998  0.7721  1.0000
  C   C61       1.0  0.9359  0.7588900000000001  0.7721  1.0000
  C   C62       1.0  0.06409999999999999  0.24111  0.7721  1.0000
  C   C63       1.0  0.06409999999999999  0.7588900000000001  0.2721  1.0000
  C   C64       1.0  0.9359  0.24111  0.2721  1.0000
  H   H49       1.0  0.4481  0.2373  0.18919999999999998  1.0000
  H   H50       1.0  0.5519000000000001  0.7626999999999998  0.18919999999999998  1.0000
  H   H51       1.0  0.5519000000000001  0.2373  0.6892  1.0000
  H   H52       1.0  0.4481  0.7626999999999998  0.6892  1.0000
  H   H53       1.0  0.9480999999999999  0.7373000000000001  0.6892  1.0000
  H   H54       1.0  0.05190000000000001  0.2627  0.6892  1.0000
  H   H55       1.0  0.05190000000000001  0.7373000000000001  0.18919999999999998  1.0000
  H   H56       1.0  0.9480999999999999  0.2627  0.18919999999999998  1.0000
  H   H57       1.0  0.42619999999999997  0.22240000000000001  0.3361  1.0000
  H   H58       1.0  0.5738000000000001  0.7776  0.3361  1.0000
  H   H59       1.0  0.5738000000000001  0.22240000000000001  0.8361000000000001  1.0000
  H   H60       1.0  0.42619999999999997  0.7776  0.8361000000000001  1.0000
  H   H61       1.0  0.9261999999999998  0.7224  0.8361000000000001  1.0000
  H   H62       1.0  0.07380000000000003  0.27759999999999996  0.8361000000000001  1.0000
  H   H63       1.0  0.07380000000000003  0.7224  0.3361  1.0000
  H   H64       1.0  0.9261999999999998  0.27759999999999996  0.3361  1.0000
  H   H65       1.0  0.0832  0.4022  0.017  1.0000
  H   H66       1.0  0.9168000000000001  0.5978  0.017  1.0000
  H   H67       1.0  0.9168000000000001  0.4022  0.517  1.0000
  H   H68       1.0  0.0832  0.5978  0.517  1.0000
  H   H69       1.0  0.5831999999999999  0.9021999999999999  0.517  1.0000
  H   H70       1.0  0.41680000000000006  0.0978  0.517  1.0000
  H   H71       1.0  0.41680000000000006  0.9021999999999999  0.017  1.0000
  H   H72       1.0  0.5831999999999999  0.0978  0.017  1.0000
  H   H73       1.0  0.0462  0.5711999999999999  0.268  1.0000
  H   H74       1.0  0.9538  0.42880000000000007  0.268  1.0000
  H   H75       1.0  0.9538  0.5711999999999999  0.768  1.0000
  H   H76       1.0  0.0462  0.42880000000000007  0.768  1.0000
  H   H77       1.0  0.5462  0.07119999999999993  0.768  1.0000
  H   H78       1.0  0.4537999999999999  0.9288  0.768  1.0000
  H   H79       1.0  0.4537999999999999  0.07119999999999993  0.268  1.0000
  H   H80       1.0  0.5462  0.9288  0.268  1.0000
  H   H81       1.0  0.193  0.4298  0.978  1.0000
  H   H82       1.0  0.8069999999999998  0.5702  0.978  1.0000
  H   H83       1.0  0.8069999999999998  0.4298  0.478  1.0000
  H   H84       1.0  0.193  0.5702  0.478  1.0000
  H   H85       1.0  0.6930000000000001  0.9298  0.478  1.0000
  H   H86       1.0  0.307  0.07019999999999998  0.478  1.0000
  H   H87       1.0  0.307  0.9298  0.978  1.0000
  H   H88       1.0  0.6930000000000001  0.07019999999999998  0.978  1.0000
  H   H89       1.0  0.125  0.5871  0.176  1.0000
  H   H90       1.0  0.8750000000000001  0.41290000000000004  0.176  1.0000
  H   H91       1.0  0.8750000000000001  0.5871  0.6759999999999999  1.0000
  H   H92       1.0  0.125  0.41290000000000004  0.6759999999999999  1.0000
  H   H93       1.0  0.625  0.08709999999999996  0.6759999999999999  1.0000
  H   H94       1.0  0.375  0.9129  0.6759999999999999  1.0000
  H   H95       1.0  0.375  0.08709999999999996  0.176  1.0000
  H   H96       1.0  0.625  0.9129  0.176  1.0000
