
#======================================================================
# CRYSTAL DATA
#----------------------------------------------------------------------
data_VESTA_phase_1

_chemical_name_common                  'Al2 O4 Pb'
_cell_length_a                         8.458000
_cell_length_b                         9.234000
_cell_length_c                         5.070000
_cell_angle_alpha                      90.000000
_cell_angle_beta                       90.000000
_cell_angle_gamma                      90.000000
_cell_volume                           395.972973
_space_group_name_H-M_alt              'A m a 2'
_space_group_IT_number                 40

loop_
_space_group_symop_operation_xyz
   'x, y, z'
   '-x, -y, z'
   'x+1/2, -y, z'
   '-x+1/2, y, z'
   'x, y+1/2, z+1/2'
   '-x, -y+1/2, z+1/2'
   'x+1/2, -y+1/2, z+1/2'
   '-x+1/2, y+1/2, z+1/2'

loop_
   _atom_site_label
   _atom_site_occupancy
   _atom_site_fract_x
   _atom_site_fract_y
   _atom_site_fract_z
   _atom_site_adp_type
   _atom_site_U_iso_or_equiv
   _atom_site_type_symbol
   Pb         1.0     0.250000     0.029900     0.000300    Uiso  ? Pb
   Al         1.0     0.0541(4)    0.6717(7)    0.0327(4)   Uiso  ? Al
   O(1)       1.0     0.0564(7)    0.1908(4)    0.1877(2)   Uiso  ? O
   O(2)       1.0     0.0000(7)    0.5000(4)    0.14120(10) Uiso  ? O
   O(3)       1.0     0.2500(4)    0.6849(4)    0.1527(5)   Uiso  ? O
