
#======================================================================
# CRYSTAL DATA
#----------------------------------------------------------------------
data_VESTA_phase_1

_chemical_name_common                  'Cu3 Fe4 O12 Y'
_cell_length_a                         7.29160(10)
_cell_length_b                         7.29160(10)
_cell_length_c                         7.29160(10)
_cell_angle_alpha                      90.000000
_cell_angle_beta                       90.000000
_cell_angle_gamma                      90.000000
_cell_volume                           387.675673
_space_group_name_H-M_alt              'P n -3'
_space_group_IT_number                 201

loop_
_space_group_symop_operation_xyz
   'x, y, z'
   '-x, -y, -z'
   '-x+1/2, -y+1/2, z'
   'x+1/2, y+1/2, -z'
   '-x+1/2, y, -z+1/2'
   'x+1/2, -y, z+1/2'
   'x, -y+1/2, -z+1/2'
   '-x, y+1/2, z+1/2'
   'z, x, y'
   '-z, -x, -y'
   'z, -x+1/2, -y+1/2'
   '-z, x+1/2, y+1/2'
   '-z+1/2, -x+1/2, y'
   'z+1/2, x+1/2, -y'
   '-z+1/2, x, -y+1/2'
   'z+1/2, -x, y+1/2'
   'y, z, x'
   '-y, -z, -x'
   '-y+1/2, z, -x+1/2'
   'y+1/2, -z, x+1/2'
   'y, -z+1/2, -x+1/2'
   '-y, z+1/2, x+1/2'
   '-y+1/2, -z+1/2, x'
   'y+1/2, z+1/2, -x'

loop_
   _atom_site_label
   _atom_site_occupancy
   _atom_site_fract_x
   _atom_site_fract_y
   _atom_site_fract_z
   _atom_site_adp_type
   _atom_site_U_iso_or_equiv
   _atom_site_type_symbol
   Y1         1.0     0.250000     0.250000     0.250000    Uiso  0.002000 Y
   Cu1        1.0     0.250000     0.750000     0.750000    Uiso  0.002800 Cu
   Fe11       1.0     0.500000     0.500000     0.500000    Uiso  0.001000 Fe
   Fe12       1.0     0.000000     0.000000     0.000000    Uiso  0.001000 Fe
   O1         1.0     0.245(2)     0.4256(4)    0.5515(4)   Uiso  0.001500 O
