
#======================================================================
# CRYSTAL DATA
#----------------------------------------------------------------------
data_VESTA_phase_1

_chemical_name_common                  ''
_cell_length_a                         10.390(10)
_cell_length_b                         10.390(10)
_cell_length_c                         10.390(10)
_cell_angle_alpha                      90.000000
_cell_angle_beta                       90.000000
_cell_angle_gamma                      90.000000
_cell_volume                           1121.622430
_space_group_name_H-M_alt              'F d -3 m'
_space_group_IT_number                 227

loop_
_space_group_symop_operation_xyz
   'x, y, z'
   '-x, -y+1/2, z+1/2'
   '-x+1/2, y+1/2, -z'
   'x+1/2, -y, -z+1/2'
   'z, x, y'
   'z+1/2, -x, -y+1/2'
   '-z, -x+1/2, y+1/2'
   '-z+1/2, x+1/2, -y'
   'y, z, x'
   '-y+1/2, z+1/2, -x'
   'y+1/2, -z, -x+1/2'
   '-y, -z+1/2, x+1/2'
   'y+3/4, x+1/4, -z+3/4'
   '-y+1/4, -x+1/4, -z+1/4'
   'y+1/4, -x+3/4, z+3/4'
   '-y+3/4, x+3/4, z+1/4'
   'x+3/4, z+1/4, -y+3/4'
   '-x+3/4, z+3/4, y+1/4'
   '-x+1/4, -z+1/4, -y+1/4'
   'x+1/4, -z+3/4, y+3/4'
   'z+3/4, y+1/4, -x+3/4'
   'z+1/4, -y+3/4, x+3/4'
   '-z+3/4, y+3/4, x+1/4'
   '-z+1/4, -y+1/4, -x+1/4'
   '-x+1/4, -y+1/4, -z+1/4'
   'x+1/4, y+3/4, -z+3/4'
   'x+3/4, -y+3/4, z+1/4'
   '-x+3/4, y+1/4, z+3/4'
   '-z+1/4, -x+1/4, -y+1/4'
   '-z+3/4, x+1/4, y+3/4'
   'z+1/4, x+3/4, -y+3/4'
   'z+3/4, -x+3/4, y+1/4'
   '-y+1/4, -z+1/4, -x+1/4'
   'y+3/4, -z+3/4, x+1/4'
   '-y+3/4, z+1/4, x+3/4'
   'y+1/4, z+3/4, -x+3/4'
   '-y+1/2, -x, z+1/2'
   'y, x, z'
   '-y, x+1/2, -z+1/2'
   'y+1/2, -x+1/2, -z'
   '-x+1/2, -z, y+1/2'
   'x+1/2, -z+1/2, -y'
   'x, z, y'
   '-x, z+1/2, -y+1/2'
   '-z+1/2, -y, x+1/2'
   '-z, y+1/2, -x+1/2'
   'z+1/2, -y+1/2, -x'
   'z, y, x'
   'x, y+1/2, z+1/2'
   '-x, -y, z'
   '-x+1/2, y, -z+1/2'
   'x+1/2, -y+1/2, -z'
   'z, x+1/2, y+1/2'
   'z+1/2, -x+1/2, -y'
   '-z, -x, y'
   '-z+1/2, x, -y+1/2'
   'y, z+1/2, x+1/2'
   '-y+1/2, z, -x+1/2'
   'y+1/2, -z+1/2, -x'
   '-y, -z, x'
   'y+3/4, x+3/4, -z+1/4'
   '-y+1/4, -x+3/4, -z+3/4'
   'y+1/4, -x+1/4, z+1/4'
   '-y+3/4, x+1/4, z+3/4'
   'x+3/4, z+3/4, -y+1/4'
   '-x+3/4, z+1/4, y+3/4'
   '-x+1/4, -z+3/4, -y+3/4'
   'x+1/4, -z+1/4, y+1/4'
   'z+3/4, y+3/4, -x+1/4'
   'z+1/4, -y+1/4, x+1/4'
   '-z+3/4, y+1/4, x+3/4'
   '-z+1/4, -y+3/4, -x+3/4'
   '-x+1/4, -y+3/4, -z+3/4'
   'x+1/4, y+1/4, -z+1/4'
   'x+3/4, -y+1/4, z+3/4'
   '-x+3/4, y+3/4, z+1/4'
   '-z+1/4, -x+3/4, -y+3/4'
   '-z+3/4, x+3/4, y+1/4'
   'z+1/4, x+1/4, -y+1/4'
   'z+3/4, -x+1/4, y+3/4'
   '-y+1/4, -z+3/4, -x+3/4'
   'y+3/4, -z+1/4, x+3/4'
   '-y+3/4, z+3/4, x+1/4'
   'y+1/4, z+1/4, -x+1/4'
   '-y+1/2, -x+1/2, z'
   'y, x+1/2, z+1/2'
   '-y, x, -z'
   'y+1/2, -x, -z+1/2'
   '-x+1/2, -z+1/2, y'
   'x+1/2, -z, -y+1/2'
   'x, z+1/2, y+1/2'
   '-x, z, -y'
   '-z+1/2, -y+1/2, x'
   '-z, y, -x'
   'z+1/2, -y, -x+1/2'
   'z, y+1/2, x+1/2'
   'x+1/2, y, z+1/2'
   '-x+1/2, -y+1/2, z'
   '-x, y+1/2, -z+1/2'
   'x, -y, -z'
   'z+1/2, x, y+1/2'
   'z, -x, -y'
   '-z+1/2, -x+1/2, y'
   '-z, x+1/2, -y+1/2'
   'y+1/2, z, x+1/2'
   '-y, z+1/2, -x+1/2'
   'y, -z, -x'
   '-y+1/2, -z+1/2, x'
   'y+1/4, x+1/4, -z+1/4'
   '-y+3/4, -x+1/4, -z+3/4'
   'y+3/4, -x+3/4, z+1/4'
   '-y+1/4, x+3/4, z+3/4'
   'x+1/4, z+1/4, -y+1/4'
   '-x+1/4, z+3/4, y+3/4'
   '-x+3/4, -z+1/4, -y+3/4'
   'x+3/4, -z+3/4, y+1/4'
   'z+1/4, y+1/4, -x+1/4'
   'z+3/4, -y+3/4, x+1/4'
   '-z+1/4, y+3/4, x+3/4'
   '-z+3/4, -y+1/4, -x+3/4'
   '-x+3/4, -y+1/4, -z+3/4'
   'x+3/4, y+3/4, -z+1/4'
   'x+1/4, -y+3/4, z+3/4'
   '-x+1/4, y+1/4, z+1/4'
   '-z+3/4, -x+1/4, -y+3/4'
   '-z+1/4, x+1/4, y+1/4'
   'z+3/4, x+3/4, -y+1/4'
   'z+1/4, -x+3/4, y+3/4'
   '-y+3/4, -z+1/4, -x+3/4'
   'y+1/4, -z+3/4, x+3/4'
   '-y+1/4, z+1/4, x+1/4'
   'y+3/4, z+3/4, -x+1/4'
   '-y, -x, z'
   'y+1/2, x, z+1/2'
   '-y+1/2, x+1/2, -z'
   'y, -x+1/2, -z+1/2'
   '-x, -z, y'
   'x, -z+1/2, -y+1/2'
   'x+1/2, z, y+1/2'
   '-x+1/2, z+1/2, -y'
   '-z, -y, x'
   '-z+1/2, y+1/2, -x'
   'z, -y+1/2, -x+1/2'
   'z+1/2, y, x+1/2'
   'x+1/2, y+1/2, z'
   '-x+1/2, -y, z+1/2'
   '-x, y, -z'
   'x, -y+1/2, -z+1/2'
   'z+1/2, x+1/2, y'
   'z, -x+1/2, -y+1/2'
   '-z+1/2, -x, y+1/2'
   '-z, x, -y'
   'y+1/2, z+1/2, x'
   '-y, z, -x'
   'y, -z+1/2, -x+1/2'
   '-y+1/2, -z, x+1/2'
   'y+1/4, x+3/4, -z+3/4'
   '-y+3/4, -x+3/4, -z+1/4'
   'y+3/4, -x+1/4, z+3/4'
   '-y+1/4, x+1/4, z+1/4'
   'x+1/4, z+3/4, -y+3/4'
   '-x+1/4, z+1/4, y+1/4'
   '-x+3/4, -z+3/4, -y+1/4'
   'x+3/4, -z+1/4, y+3/4'
   'z+1/4, y+3/4, -x+3/4'
   'z+3/4, -y+1/4, x+3/4'
   '-z+1/4, y+1/4, x+1/4'
   '-z+3/4, -y+3/4, -x+1/4'
   '-x+3/4, -y+3/4, -z+1/4'
   'x+3/4, y+1/4, -z+3/4'
   'x+1/4, -y+1/4, z+1/4'
   '-x+1/4, y+3/4, z+3/4'
   '-z+3/4, -x+3/4, -y+1/4'
   '-z+1/4, x+3/4, y+3/4'
   'z+3/4, x+1/4, -y+3/4'
   'z+1/4, -x+1/4, y+1/4'
   '-y+3/4, -z+3/4, -x+1/4'
   'y+1/4, -z+1/4, x+1/4'
   '-y+1/4, z+3/4, x+3/4'
   'y+3/4, z+1/4, -x+3/4'
   '-y, -x+1/2, z+1/2'
   'y+1/2, x+1/2, z'
   '-y+1/2, x, -z+1/2'
   'y, -x, -z'
   '-x, -z+1/2, y+1/2'
   'x, -z, -y'
   'x+1/2, z+1/2, y'
   '-x+1/2, z, -y+1/2'
   '-z, -y+1/2, x+1/2'
   '-z+1/2, y, -x+1/2'
   'z, -y, -x'
   'z+1/2, y+1/2, x'

loop_
   _atom_site_label
   _atom_site_occupancy
   _atom_site_fract_x
   _atom_site_fract_y
   _atom_site_fract_z
   _atom_site_adp_type
   _atom_site_B_iso_or_equiv
   _atom_site_type_symbol
   Na1        0.1875  0.625000     0.625000     0.625000    Biso  ? Na
   K1         0.1250  0.625000     0.625000     0.625000    Biso  ? K
   Ca1        0.5625  0.625000     0.625000     0.625000    Biso  ? Ca
   Ce1        0.1250  0.625000     0.625000     0.625000    Biso  ? Ce
   Fe1        0.1875  0.125000     0.125000     0.125000    Biso  ? Fe
   Nb1        0.8125  0.125000     0.125000     0.125000    Biso  ? Nb
   O1         1.0     0.190000     0.000000     0.000000    Biso  ? O
   O2         0.7500  0.500000     0.500000     0.500000    Biso  ? O
   F1         0.2500  0.500000     0.500000     0.500000    Biso  ? F
