
#======================================================================
# CRYSTAL DATA
#----------------------------------------------------------------------
data_VESTA_phase_1

_chemical_name_common                  'B1 P1 S4'
_cell_length_a                         5.60(6)
_cell_length_b                         5.25(6)
_cell_length_c                         9.04(6)
_cell_angle_alpha                      90.000000
_cell_angle_beta                       90.000000
_cell_angle_gamma                      90.000000
_cell_volume                           265.775994
_space_group_name_H-M_alt              'I 2 2 2'
_space_group_IT_number                 23

loop_
_space_group_symop_operation_xyz
   'x, y, z'
   '-x, -y, z'
   '-x, y, -z'
   'x, -y, -z'
   'x+1/2, y+1/2, z+1/2'
   '-x+1/2, -y+1/2, z+1/2'
   '-x+1/2, y+1/2, -z+1/2'
   'x+1/2, -y+1/2, -z+1/2'

loop_
   _atom_site_label
   _atom_site_occupancy
   _atom_site_fract_x
   _atom_site_fract_y
   _atom_site_fract_z
   _atom_site_adp_type
   _atom_site_B_iso_or_equiv
   _atom_site_type_symbol
   B1         1.0     0.000000     0.500000     0.000000    Biso  ? B
   P1         1.0     0.000000     0.000000     0.000000    Biso  ? P
   S1         1.0     0.200000     0.290000     0.115000    Biso  ? S
