
#======================================================================
# CRYSTAL DATA
#----------------------------------------------------------------------
data_VESTA_phase_1

_chemical_name_common                  'F4 K2 O9 Ta4'
_cell_length_a                         15.936(8)
_cell_length_b                         15.936(8)
_cell_length_c                         3.892(5)
_cell_angle_alpha                      90.000000
_cell_angle_beta                       90.000000
_cell_angle_gamma                      120.000000
_cell_volume                           855.976997
_space_group_name_H-M_alt              'P 6'
_space_group_IT_number                 168

loop_
_space_group_symop_operation_xyz
   'x, y, z'
   '-y, x-y, z'
   '-x+y, -x, z'
   '-x, -y, z'
   'y, -x+y, z'
   'x-y, x, z'

loop_
   _atom_site_label
   _atom_site_occupancy
   _atom_site_fract_x
   _atom_site_fract_y
   _atom_site_fract_z
   _atom_site_adp_type
   _atom_site_B_iso_or_equiv
   _atom_site_type_symbol
   Ta1        1.0     0.26340(10)  0.17340(10)  0.500000    Biso  ? Ta
   Ta2        1.0     0.34790(10)  0.43680(10)  0.5150(13)  Biso  ? Ta
   K1         1.0     0.1790(7)    0.49650(10)  0.031(7)    Biso  ? K
   O1         0.6920  0.1870(10)   0.0350(10)   0.579(5)    Biso  0.900000 O
   O2         0.6920  0.0340(10)   0.3490(10)   0.568(6)    Biso  0.700000 O
   O3         0.6920  0.2200(10)   0.3880(10)   0.576(4)    Biso  0.200000 O
   O4         0.6920  0.3740(10)   0.5690(10)   0.566(5)    Biso  0.900000 O
   O5         0.6920  0.454(2)     0.093(2)     0.05(3)     Biso  2.900000 O
   O6         0.6920  0.273(2)     0.178(2)     0.031(18)   Biso  3.100000 O
   O7         0.6920  0.000000     0.500000     0.586(8)    Biso  1.000000 O
   F1         0.3080  0.1870(10)   0.0350(10)   0.579(5)    Biso  0.900000 F
   F2         0.3080  0.0340(10)   0.3490(10)   0.568(6)    Biso  0.700000 F
   F3         0.3080  0.2200(10)   0.3880(10)   0.576(4)    Biso  0.200000 F
   F4         0.3080  0.3740(10)   0.5690(10)   0.566(5)    Biso  0.900000 F
   F5         0.3080  0.454(2)     0.093(2)     0.05(3)     Biso  2.900000 F
   F6         0.3080  0.273(2)     0.178(2)     0.031(18)   Biso  3.100000 F
   F7         0.3080  0.000000     0.500000     0.586(8)    Biso  1.000000 F

loop_
   _atom_site_aniso_label
   _atom_site_aniso_U_11
   _atom_site_aniso_U_22
   _atom_site_aniso_U_33
   _atom_site_aniso_U_12
   _atom_site_aniso_U_13
   _atom_site_aniso_U_23
