data_image0
_chemical_formula_structural       La4S4O24C4H4O4H8
_chemical_formula_sum              "La4 S4 O28 C4 H12"
_cell_length_a       6.9992
_cell_length_b       6.9992
_cell_length_c       11.8201
_cell_angle_alpha    90.0
_cell_angle_beta     90.0
_cell_angle_gamma    90.0

_space_group_name_H-M_alt    "P 1"
_space_group_IT_number       1

loop_
  _space_group_symop_operation_xyz
  'x, y, z'

loop_
  _atom_site_type_symbol
  _atom_site_label
  _atom_site_symmetry_multiplicity
  _atom_site_fract_x
  _atom_site_fract_y
  _atom_site_fract_z
  _atom_site_occupancy
  La  La1       1.0  0.14402999999999996  0.39213  0.25865  1.0000
  La  La2       1.0  0.85597  0.6078699999999999  0.7586500000000002  1.0000
  La  La3       1.0  0.6078699999999999  0.14402999999999996  0.008650000000000047  1.0000
  La  La4       1.0  0.39213  0.85597  0.50865  1.0000
  S   S1        1.0  0.11478999999999998  0.25024  0.9502500000000002  1.0000
  S   S2        1.0  0.88521  0.74976  0.45025  1.0000
  S   S3        1.0  0.74976  0.11478999999999998  0.70025  1.0000
  S   S4        1.0  0.25024  0.88521  0.20025  1.0000
  O   O1        1.0  0.0419  0.3727  0.8601  1.0000
  O   O2        1.0  0.9580999999999998  0.6273  0.36010000000000003  1.0000
  O   O3        1.0  0.6273  0.0419  0.6101000000000001  1.0000
  O   O4        1.0  0.3727  0.9580999999999998  0.11009999999999999  1.0000
  O   O5        1.0  0.964  0.1131  0.98305  1.0000
  O   O6        1.0  0.036  0.8869  0.48305000000000003  1.0000
  O   O7        1.0  0.8869  0.964  0.7330500000000001  1.0000
  O   O8        1.0  0.1131  0.036  0.23305  1.0000
  O   O9        1.0  0.8040999999999999  0.3632  0.1725  1.0000
  O   O10       1.0  0.19589999999999996  0.6368  0.6725  1.0000
  O   O11       1.0  0.6368  0.8040999999999999  0.9225  1.0000
  O   O12       1.0  0.3632  0.19589999999999996  0.4225  1.0000
  O   O13       1.0  0.1504  0.7161  0.1584  1.0000
  O   O14       1.0  0.8496  0.28390000000000004  0.6584  1.0000
  O   O15       1.0  0.28390000000000004  0.1504  0.9084000000000001  1.0000
  O   O16       1.0  0.7161  0.8496  0.4084  1.0000
  O   O17       1.0  0.1702  0.3662999999999999  0.048  1.0000
  O   O18       1.0  0.8297999999999999  0.6336999999999999  0.5480000000000002  1.0000
  O   O19       1.0  0.6336999999999999  0.1702  0.7980000000000002  1.0000
  O   O20       1.0  0.3662999999999999  0.8297999999999999  0.29800000000000004  1.0000
  O   O21       1.0  0.4900999999999999  0.3565  0.1852  1.0000
  O   O22       1.0  0.5099  0.6435  0.6852000000000001  1.0000
  O   O23       1.0  0.6435  0.4900999999999999  0.9352000000000001  1.0000
  O   O24       1.0  0.3565  0.5099  0.43520000000000003  1.0000
  C   C1        1.0  0.6525000000000001  0.4071  0.2216  1.0000
  C   C2        1.0  0.3475  0.5929  0.7216000000000001  1.0000
  C   C3        1.0  0.5929  0.6525000000000001  0.9716000000000001  1.0000
  C   C4        1.0  0.4071  0.3475  0.4716  1.0000
  H   H1        1.0  0.673  0.45699999999999996  0.29500000000000004  1.0000
  H   H2        1.0  0.327  0.543  0.795  1.0000
  H   H3        1.0  0.543  0.673  0.04499999999999993  1.0000
  H   H4        1.0  0.45699999999999996  0.327  0.545  1.0000
  O   O25       1.0  0.9377  0.2536  0.41510000000000014  1.0000
  O   O26       1.0  0.0623  0.7464  0.9151  1.0000
  O   O27       1.0  0.7464  0.9377  0.16510000000000005  1.0000
  O   O28       1.0  0.2536  0.0623  0.6651  1.0000
  H   H5        1.0  0.9549999999999998  0.137  0.446  1.0000
  H   H6        1.0  0.04499999999999999  0.8629999999999999  0.946  1.0000
  H   H7        1.0  0.8629999999999999  0.9549999999999998  0.19599999999999998  1.0000
  H   H8        1.0  0.137  0.04499999999999999  0.6960000000000001  1.0000
  H   H9        1.0  0.911  0.308  0.4820000000000001  1.0000
  H   H10       1.0  0.08899999999999997  0.6919999999999998  0.982  1.0000
  H   H11       1.0  0.6919999999999998  0.911  0.232  1.0000
  H   H12       1.0  0.308  0.08899999999999997  0.7320000000000001  1.0000
