
#======================================================================
# CRYSTAL DATA
#----------------------------------------------------------------------
data_VESTA_phase_1

_chemical_name_common                  'As4 Mg1'
_cell_length_a                         5.385(2)
_cell_length_b                         5.385(2)
_cell_length_c                         15.798(6)
_cell_angle_alpha                      90.000000
_cell_angle_beta                       90.000000
_cell_angle_gamma                      90.000000
_cell_volume                           458.114007
_space_group_name_H-M_alt              'P 41 21 2'
_space_group_IT_number                 92

loop_
_space_group_symop_operation_xyz
   'x, y, z'
   '-x, -y, z+1/2'
   '-y+1/2, x+1/2, z+1/4'
   'y+1/2, -x+1/2, z+3/4'
   '-x+1/2, y+1/2, -z+1/4'
   'x+1/2, -y+1/2, -z+3/4'
   'y, x, -z'
   '-y, -x, -z+1/2'

loop_
   _atom_site_label
   _atom_site_occupancy
   _atom_site_fract_x
   _atom_site_fract_y
   _atom_site_fract_z
   _atom_site_adp_type
   _atom_site_B_iso_or_equiv
   _atom_site_type_symbol
   As1        1.0     0.0994(4)   -0.0233(4)    0.3749(2)   Biso  0.390000 As
   As2        1.0     0.6754(4)    0.0668(4)    0.20290(10) Biso  0.370000 As
   Mg1        1.0     0.198(2)     0.198(2)     0.000000    Biso  0.900000 Mg
